fission-0265
fission-0265
fission-0265
fission-0265
fission-0265
fission-0265
fission-0265
fission-0265
fission-0265
fission-0265
fission-0265
fission-0265
fission-0265
fission-0265
fission-0265
fission-0265
fission-0265
fission-0265
fission-0265
fission-0265
fission-0265
fission-0265
fission-0265
fission-0265
fission-0265
fission-0265
fission-0265
fission-0265
fission-0265
fission-0265
fission-0265
fission-0265
fission-0271
fission-0271
fission-0271
fission-0271
fission-0271
fission-0271
fission-0271
fission-0271
fission-0271
fission-0271
fission-0271
fission-0271
fission-0271
fission-0271
fission-0271
fission-0271
fission-0271
fission-0271
fission-0271
fission-0271
fission-0271
fission-0271
fission-0271
fission-0271
fission-0271
fission-0271
fission-0271
fission-0271
fission-0271
fission-0271
fission-0271
fission-0271
fission-0252
fission-0252
fission-0252
fission-0252
fission-0252
fission-0252
fission-0252
fission-0252
fission-0252
fission-0252
fission-0252
fission-0252
fission-0252
fission-0252
fission-0252
fission-0252
fission-0252
fission-0252
fission-0252
fission-0252
fission-0252
fission-0252
fission-0252
fission-0252
fission-0252
fission-0252
fission-0252
fission-0252
fission-0252
fission-0252
fission-0252
fission-0252
fission-0266
fission-0266
fission-0266
fission-0266
fission-0266
fission-0266
fission-0266
fission-0266
fission-0266
fission-0266
fission-0266
fission-0266
fission-0266
fission-0266
fission-0266
fission-0266
fission-0266
fission-0266
fission-0266
fission-0266
fission-0266
fission-0266
fission-0266
fission-0266
fission-0266
fission-0266
fission-0266
fission-0266
fission-0266
fission-0266
fission-0266
fission-0266
fission-0273
fission-0273
fission-0273
fission-0273
fission-0273
fission-0273
fission-0273
fission-0273
fission-0273
fission-0273
fission-0273
fission-0273
fission-0273
fission-0273
fission-0273
fission-0273
fission-0273
fission-0273
fission-0273
fission-0273
fission-0273
fission-0273
fission-0273
fission-0273
fission-0273
fission-0273
fission-0273
fission-0273
fission-0273
fission-0273
fission-0273
fission-0273
fission-0267
fission-0267
fission-0267
fission-0267
fission-0267
fission-0267
fission-0267
fission-0267
fission-0267
fission-0267
fission-0267
fission-0267
fission-0267
fission-0267
fission-0267
fission-0267
fission-0267
fission-0267
fission-0267
fission-0267
fission-0267
fission-0267
fission-0267
fission-0267
fission-0267
fission-0267
fission-0267
fission-0267
fission-0267
fission-0267
fission-0267
fission-0267
fission-0272
fission-0272
fission-0272
fission-0272
fission-0272
fission-0272
fission-0272
fission-0272
fission-0272
fission-0272
fission-0272
fission-0272
fission-0272
fission-0272
fission-0272
fission-0272
fission-0272
fission-0272
fission-0272
fission-0272
fission-0272
fission-0272
fission-0272
fission-0272
fission-0272
fission-0272
fission-0272
fission-0272
fission-0272
fission-0272
fission-0272
fission-0272
fission-0274
fission-0274
fission-0274
fission-0274
fission-0274
fission-0274
fission-0274
fission-0274
fission-0274
fission-0274
fission-0274
fission-0274
fission-0274
fission-0274
fission-0274
fission-0274
fission-0274
fission-0274
fission-0274
fission-0274
fission-0274
fission-0274
fission-0274
fission-0274
fission-0274
fission-0274
fission-0274
fission-0274
fission-0274
fission-0274
fission-0274
fission-0274
fission-0275
fission-0275
fission-0275
fission-0275
fission-0275
fission-0275
fission-0275
fission-0275
fission-0275
fission-0275
fission-0275
fission-0275
fission-0275
fission-0275
fission-0275
fission-0275
fission-0275
fission-0275
fission-0275
fission-0275
fission-0275
fission-0275
fission-0275
fission-0275
fission-0275
fission-0275
fission-0275
fission-0275
fission-0275
fission-0275
fission-0275
fission-0275
fission-0276
fission-0276
fission-0276
fission-0276
fission-0276
fission-0276
fission-0276
fission-0276
fission-0276
fission-0276
fission-0276
fission-0276
fission-0276
fission-0276
fission-0276
fission-0276
fission-0276
fission-0276
fission-0276
fission-0276
fission-0276
fission-0276
fission-0276
fission-0276
fission-0276
fission-0276
fission-0276
fission-0276
fission-0276
fission-0276
fission-0276
fission-0276
fission-0279
fission-0279
fission-0279
fission-0279
fission-0279
fission-0279
fission-0279
fission-0279
fission-0279
fission-0279
fission-0279
fission-0279
fission-0279
fission-0279
fission-0279
fission-0279
fission-0279
fission-0279
fission-0279
fission-0279
fission-0279
fission-0279
fission-0279
fission-0279
fission-0279
fission-0279
fission-0279
fission-0279
fission-0279
fission-0279
fission-0279
fission-0279
fission-0256
fission-0256
fission-0256
fission-0256
fission-0256
fission-0256
fission-0256
fission-0256
fission-0256
fission-0256
fission-0256
fission-0256
fission-0256
fission-0256
fission-0256
fission-0256
fission-0256
fission-0256
fission-0256
fission-0256
fission-0256
fission-0256
fission-0256
fission-0256
fission-0256
fission-0256
fission-0256
fission-0256
fission-0256
fission-0256
fission-0256
fission-0256
fission-0262
fission-0262
fission-0262
fission-0262
fission-0262
fission-0262
fission-0262
fission-0262
fission-0262
fission-0262
fission-0262
fission-0262
fission-0262
fission-0262
fission-0262
fission-0262
fission-0262
fission-0262
fission-0262
fission-0262
fission-0262
fission-0262
fission-0262
fission-0262
fission-0262
fission-0262
fission-0262
fission-0262
fission-0262
fission-0262
fission-0262
fission-0262
fission-0260
fission-0260
fission-0260
fission-0260
fission-0260
fission-0260
fission-0260
fission-0260
fission-0260
fission-0260
fission-0260
fission-0260
fission-0260
fission-0260
fission-0260
fission-0260
fission-0260
fission-0260
fission-0260
fission-0260
fission-0260
fission-0260
fission-0260
fission-0260
fission-0260
fission-0260
fission-0260
fission-0260
fission-0260
fission-0260
fission-0260
fission-0260
fission-0253
fission-0253
fission-0253
fission-0253
fission-0253
fission-0253
fission-0253
fission-0253
fission-0253
fission-0253
fission-0253
fission-0253
fission-0253
fission-0253
fission-0253
fission-0253
fission-0253
fission-0253
fission-0253
fission-0253
fission-0253
fission-0253
fission-0253
fission-0253
fission-0253
fission-0253
fission-0253
fission-0253
fission-0253
fission-0253
fission-0253
fission-0253
fission-0254
fission-0254
fission-0254
fission-0254
fission-0254
fission-0254
fission-0254
fission-0254
fission-0254
fission-0254
fission-0254
fission-0254
fission-0254
fission-0254
fission-0254
fission-0254
fission-0254
fission-0254
fission-0254
fission-0254
fission-0254
fission-0254
fission-0254
fission-0254
fission-0254
fission-0254
fission-0254
fission-0254
fission-0254
fission-0254
fission-0254
fission-0254

The following PBS extra args (PBS_EXTRA_ARGS) will be used: -P ldrd
The following lammps extra args (LAMMPS_EXTRA_ARGS) will be used:
LAMMPS (16 Feb 2016)
#log		log.c
units           metal
dimension       3
boundary        p p p
atom_style      atomic
shell         mkdir  cfg
shell         mkdir  dump

# ----------------------- ATOM DEFINITION & Force Field -------------
lattice         fcc 3.615 #origin 0.0 0.0 0.0 orient x 1 -1 0 orient y 1 1 -2 orient z 1 1 1
Lattice spacing in x,y,z = 3.615 3.615 3.615
variable        Lx equal 65
variable        Ly equal 3
variable        Lz equal 260
variable        boxLZ equal 270
region          SYSTEM block -65 65 -3 3 -260 0 units lattice
region          BOX block -65 65 -3 3 -270 5 units lattice
create_box      1 BOX
Created orthogonal box = (-234.975 -10.845 -976.05) to (234.975 10.845 18.075)
create_atoms    1 region SYSTEM
Created 812760 atoms

delete_atoms     porosity BOX 0.001 18208
Deleted 841 atoms, new total = 811919

#---------------------------------------------------------------------

pair_style      eam/alloy
pair_coeff  	  * * Cu01.eam.alloy Cu

#----------------------------------------------------------------------
velocity       all create 300.0 27419 mom yes rot yes dist gaussian
fix             1 all npt temp 300 300 0.1 iso 0.0 0.0 2
run      10000
  1 neighbor list requests
  update every 1 steps, delay 10 steps, check yes
Setting up Verlet run ...
  Unit style  : metal
  Current step: 0
  Time step   : 0.001
Step Temp E_pair E_mol TotEng Press Volume
0          300   -2871375.6            0     -2839891     2683.196     10133330
Loop time of 124.121 on 512 procs for 10000 steps with 811919 atoms

unfix 1

fix            2 all nvt temp 300.0 300.0 0.1

run      10000
Setting up Verlet run ...
  Unit style  : metal
  Current step: 10000
  Time step   : 0.001
Step Temp E_pair E_mol TotEng Press
10000    299.83172     -2839316            0   -2807849.1    17.664963
Loop time of 123.611 on 512 procs for 10000 steps with 811919 atoms

reset_timestep 0
unfix    2
#---------------------- DEFINE Laser GERION and GROUP ----------------
region       R1  block -75  75  INF  INF  INF  5  units box
group        G1 region R1
259187 atoms in group G1
group        G2 subtract all G1
552732 atoms in group G2

#define     temperature/pressure calculation  group
variable    x1atom atom "x>=0  &&  x<4 &&  z>-40 && z<1"     ##NEW!!!!!!!!!!!!
variable    x2atom atom "x>=-234.98  &&  x<-230.98 &&  z>-40 && z<1"
variable    x3atom atom "x>=0  &&  x<4 &&  z>-20 && z<1"
variable    x4atom atom "x>=-234.98  &&  x<-230.98 &&  z>-20 && z<1"
variable    x5atom atom "x>=196  &&  x<200 &&  z>-40 && z<1"

group       x1atom variable x1atom
375 atoms in group x1atom
group       x2atom variable x2atom
276 atoms in group x2atom
group       x3atom variable x3atom
203 atoms in group x3atom
group       x4atom variable x4atom
144 atoms in group x4atom
group       x5atom variable x5atom
401 atoms in group x5atom

compute      COM1x x1atom com
compute      COM2x x2atom com
compute      COM3x x3atom com
compute      COM4x x4atom com
compute      COM5x x5atom com

compute      COMall all com

#Temperature profile
#variable      Tprofile atom 300*(1+(step/5000)*2.5*exp(z/40))
#variable tmp equal "lz"
variable      Tprofile atom  300+600*(step/5000)*exp(z/40)*exp(-x*x/1289)

# ------------------------- SETTINGS ---------------------------------
thermo          100
thermo_style    custom step lx pxx pyy pzz temp c_COM1x[1] c_COM1x[2] c_COM1x[3] c_COM2x[1] c_COM2x[2] c_COM2x[3] c_COM3x[1] c_COM3x[2] c_COM3x[3] c_COM4x[1] c_COM4x[2] c_COM4x[3]  c_COM5x[1] c_COM5x[2] c_COM5x[3] c_COMall[1] c_COMall[2] c_COMall[3]

timestep       0.002

compute dispall all displace/atom
# ---------------- Run Laser Material Interaction --------------------
#dump          1 all custom 1000 dump/z1dump.atom id type x y z c_dispall[1]  c_dispall[2]  c_dispall[3] c_dispall[4]
#dump          2 all cfg 100 cfg/*.cfg mass type xs ys zs
#dump_modify   2 element Al

#relax for 2 PS
#fix           1 all nvt temp 300.0 300.0 0.1
#run  1000
#unfix         1

fix           1  all nve
fix           3temp  all  langevin  v_Tprofile  0  0.1  378411   #TEST ALL
run           5000
Setting up Verlet run ...
  Unit style  : metal
  Current step: 0
  Time step   : 0.002
Step Lx Pxx Pyy Pzz Temp COM1x[1] COM1x[2] COM1x[3] COM2x[1] COM2x[2] COM2x[3] COM3x[1] COM3x[2] COM3x[3] COM4x[1] COM4x[2] COM4x[3] COM5x[1] COM5x[2] COM5x[3] COMall[1 COMall[2 COMall[3
0    472.02039   -420.08623   -436.17489   -422.28614    299.78243    2.0665517  -0.91420059   -19.039313   -233.27005  -0.95601473   -19.281776    2.0099948   -0.9505936   -9.5640719   -233.28157  -0.97018373    -9.291557    197.98876  -0.80369008   -19.289861  -0.91751297  -0.90771699   -469.91065
Averages over the last 26 of 51 rows, steps 2500 to 5000:
Lx Pxx Pyy Pzz Temp COM1x[1] COM1x[2] COM1x[3] COM2x[1] COM2x[2] COM2x[3] COM3x[1] COM3x[2] COM3x[3] COM4x[1] COM4x[2] COM4x[3] COM5x[1] COM5x[2] COM5x[3] COMall[1 COMall[2 COMall[3
472.02 -307.038 -296.634 -332.916 302.745 2.036 -0.934798 -18.9505 -233.246 -0.938147 -19.2761 1.94346 -0.982638 -9.43111 -233.263 -0.954523 -9.27867 197.945 -0.780683 -19.3224 -0.91919 -0.907462 -469.912
Loop time of 63.7387 on 512 procs for 5000 steps with 811919 atoms

variable  com1_x equal "c_COM1x[1]"
variable  com1_y equal "c_COM1x[2]"
variable  com1_z equal "c_COM1x[3]"
variable  com2_x equal "c_COM2x[1]"
variable  com2_y equal "c_COM2x[2]"
variable  com2_z equal "c_COM2x[3]"
variable  com3_x equal "c_COM3x[1]"
variable  com3_y equal "c_COM3x[2]"
variable  com3_z equal "c_COM3x[3]"
variable  com4_x equal "c_COM4x[1]"
variable  com4_y equal "c_COM4x[2]"
variable  com4_z equal "c_COM4x[3]"
variable  com5_x equal "c_COM5x[1]"
variable  com5_y equal "c_COM5x[2]"
variable  com5_z equal "c_COM5x[3]"
variable  comall_x equal "c_COMall[1]"
variable  comall_y equal "c_COMall[2]"
variable  comall_z equal "c_COMall[3]"

#-------------------------- Wave Propagation -------------------------
unfix        3temp
run          1000000
Setting up Verlet run ...
  Unit style  : metal
  Current step: 5000
  Time step   : 0.002
Step Lx Pxx Pyy Pzz Temp COM1x[1] COM1x[2] COM1x[3] COM2x[1] COM2x[2] COM2x[3] COM3x[1] COM3x[2] COM3x[3] COM4x[1] COM4x[2] COM4x[3] COM5x[1] COM5x[2] COM5x[3] COMall[1 COMall[2 COMall[3
5000    472.02039   -217.89902   -200.28908   -237.11725    303.70729    2.0846411  -0.97728398   -18.930605   -233.27259  -0.92229637   -19.268226    1.9855203   -1.0403196    -9.361837   -233.26778  -0.91920502     -9.26963    197.94429  -0.81324958   -19.328071  -0.91858281  -0.90942821   -469.91434
Averages over the last 5001 of 10001 rows, steps 505000 to 1005000:
Lx Pxx Pyy Pzz Temp COM1x[1] COM1x[2] COM1x[3] COM2x[1] COM2x[2] COM2x[3] COM3x[1] COM3x[2] COM3x[3] COM4x[1] COM4x[2] COM4x[3] COM5x[1] COM5x[2] COM5x[3] COMall[1 COMall[2 COMall[3
472.02 -44.4873 -37.0806 -4.09788 304.089 4.97294 1.34109 -15.232 -230.334 1.38208 -15.5812 4.90063 1.28833 -5.76554 -230.334 1.38212 -5.59099 200.897 1.48828 -15.6247 2.03951 1.3817 -466.089
Loop time of 12391.4 on 512 procs for 1000000 steps with 811919 atoms
