fission-0363
fission-0363
fission-0363
fission-0363
fission-0363
fission-0363
fission-0363
fission-0363
fission-0363
fission-0363
fission-0363
fission-0363
fission-0363
fission-0363
fission-0363
fission-0363
fission-0363
fission-0363
fission-0363
fission-0363
fission-0363
fission-0363
fission-0363
fission-0363
fission-0363
fission-0363
fission-0363
fission-0363
fission-0363
fission-0363
fission-0363
fission-0363
fission-0342
fission-0342
fission-0342
fission-0342
fission-0342
fission-0342
fission-0342
fission-0342
fission-0342
fission-0342
fission-0342
fission-0342
fission-0342
fission-0342
fission-0342
fission-0342
fission-0342
fission-0342
fission-0342
fission-0342
fission-0342
fission-0342
fission-0342
fission-0342
fission-0342
fission-0342
fission-0342
fission-0342
fission-0342
fission-0342
fission-0342
fission-0342
fission-0343
fission-0343
fission-0343
fission-0343
fission-0343
fission-0343
fission-0343
fission-0343
fission-0343
fission-0343
fission-0343
fission-0343
fission-0343
fission-0343
fission-0343
fission-0343
fission-0343
fission-0343
fission-0343
fission-0343
fission-0343
fission-0343
fission-0343
fission-0343
fission-0343
fission-0343
fission-0343
fission-0343
fission-0343
fission-0343
fission-0343
fission-0343
fission-0344
fission-0344
fission-0344
fission-0344
fission-0344
fission-0344
fission-0344
fission-0344
fission-0344
fission-0344
fission-0344
fission-0344
fission-0344
fission-0344
fission-0344
fission-0344
fission-0344
fission-0344
fission-0344
fission-0344
fission-0344
fission-0344
fission-0344
fission-0344
fission-0344
fission-0344
fission-0344
fission-0344
fission-0344
fission-0344
fission-0344
fission-0344
fission-0306
fission-0306
fission-0306
fission-0306
fission-0306
fission-0306
fission-0306
fission-0306
fission-0306
fission-0306
fission-0306
fission-0306
fission-0306
fission-0306
fission-0306
fission-0306
fission-0306
fission-0306
fission-0306
fission-0306
fission-0306
fission-0306
fission-0306
fission-0306
fission-0306
fission-0306
fission-0306
fission-0306
fission-0306
fission-0306
fission-0306
fission-0306
fission-0348
fission-0348
fission-0348
fission-0348
fission-0348
fission-0348
fission-0348
fission-0348
fission-0348
fission-0348
fission-0348
fission-0348
fission-0348
fission-0348
fission-0348
fission-0348
fission-0348
fission-0348
fission-0348
fission-0348
fission-0348
fission-0348
fission-0348
fission-0348
fission-0348
fission-0348
fission-0348
fission-0348
fission-0348
fission-0348
fission-0348
fission-0348
fission-0351
fission-0351
fission-0351
fission-0351
fission-0351
fission-0351
fission-0351
fission-0351
fission-0351
fission-0351
fission-0351
fission-0351
fission-0351
fission-0351
fission-0351
fission-0351
fission-0351
fission-0351
fission-0351
fission-0351
fission-0351
fission-0351
fission-0351
fission-0351
fission-0351
fission-0351
fission-0351
fission-0351
fission-0351
fission-0351
fission-0351
fission-0351
fission-0068
fission-0068
fission-0068
fission-0068
fission-0068
fission-0068
fission-0068
fission-0068
fission-0068
fission-0068
fission-0068
fission-0068
fission-0068
fission-0068
fission-0068
fission-0068
fission-0068
fission-0068
fission-0068
fission-0068
fission-0068
fission-0068
fission-0068
fission-0068
fission-0068
fission-0068
fission-0068
fission-0068
fission-0068
fission-0068
fission-0068
fission-0068
fission-0094
fission-0094
fission-0094
fission-0094
fission-0094
fission-0094
fission-0094
fission-0094
fission-0094
fission-0094
fission-0094
fission-0094
fission-0094
fission-0094
fission-0094
fission-0094
fission-0094
fission-0094
fission-0094
fission-0094
fission-0094
fission-0094
fission-0094
fission-0094
fission-0094
fission-0094
fission-0094
fission-0094
fission-0094
fission-0094
fission-0094
fission-0094
fission-0245
fission-0245
fission-0245
fission-0245
fission-0245
fission-0245
fission-0245
fission-0245
fission-0245
fission-0245
fission-0245
fission-0245
fission-0245
fission-0245
fission-0245
fission-0245
fission-0245
fission-0245
fission-0245
fission-0245
fission-0245
fission-0245
fission-0245
fission-0245
fission-0245
fission-0245
fission-0245
fission-0245
fission-0245
fission-0245
fission-0245
fission-0245
fission-0360
fission-0360
fission-0360
fission-0360
fission-0360
fission-0360
fission-0360
fission-0360
fission-0360
fission-0360
fission-0360
fission-0360
fission-0360
fission-0360
fission-0360
fission-0360
fission-0360
fission-0360
fission-0360
fission-0360
fission-0360
fission-0360
fission-0360
fission-0360
fission-0360
fission-0360
fission-0360
fission-0360
fission-0360
fission-0360
fission-0360
fission-0360
fission-0192
fission-0192
fission-0192
fission-0192
fission-0192
fission-0192
fission-0192
fission-0192
fission-0192
fission-0192
fission-0192
fission-0192
fission-0192
fission-0192
fission-0192
fission-0192
fission-0192
fission-0192
fission-0192
fission-0192
fission-0192
fission-0192
fission-0192
fission-0192
fission-0192
fission-0192
fission-0192
fission-0192
fission-0192
fission-0192
fission-0192
fission-0192
fission-0105
fission-0105
fission-0105
fission-0105
fission-0105
fission-0105
fission-0105
fission-0105
fission-0105
fission-0105
fission-0105
fission-0105
fission-0105
fission-0105
fission-0105
fission-0105
fission-0105
fission-0105
fission-0105
fission-0105
fission-0105
fission-0105
fission-0105
fission-0105
fission-0105
fission-0105
fission-0105
fission-0105
fission-0105
fission-0105
fission-0105
fission-0105
fission-0214
fission-0214
fission-0214
fission-0214
fission-0214
fission-0214
fission-0214
fission-0214
fission-0214
fission-0214
fission-0214
fission-0214
fission-0214
fission-0214
fission-0214
fission-0214
fission-0214
fission-0214
fission-0214
fission-0214
fission-0214
fission-0214
fission-0214
fission-0214
fission-0214
fission-0214
fission-0214
fission-0214
fission-0214
fission-0214
fission-0214
fission-0214
fission-0097
fission-0097
fission-0097
fission-0097
fission-0097
fission-0097
fission-0097
fission-0097
fission-0097
fission-0097
fission-0097
fission-0097
fission-0097
fission-0097
fission-0097
fission-0097
fission-0097
fission-0097
fission-0097
fission-0097
fission-0097
fission-0097
fission-0097
fission-0097
fission-0097
fission-0097
fission-0097
fission-0097
fission-0097
fission-0097
fission-0097
fission-0097
fission-0168
fission-0168
fission-0168
fission-0168
fission-0168
fission-0168
fission-0168
fission-0168
fission-0168
fission-0168
fission-0168
fission-0168
fission-0168
fission-0168
fission-0168
fission-0168
fission-0168
fission-0168
fission-0168
fission-0168
fission-0168
fission-0168
fission-0168
fission-0168
fission-0168
fission-0168
fission-0168
fission-0168
fission-0168
fission-0168
fission-0168
fission-0168

The following PBS extra args (PBS_EXTRA_ARGS) will be used: -P ldrd
The following lammps extra args (LAMMPS_EXTRA_ARGS) will be used:
LAMMPS (16 Feb 2016)
#log		log.c
units           metal
dimension       3
boundary        p p p
atom_style      atomic
shell         mkdir  cfg
shell         mkdir  dump

# ----------------------- ATOM DEFINITION & Force Field -------------
lattice         fcc 3.615 #origin 0.0 0.0 0.0 orient x 1 -1 0 orient y 1 1 -2 orient z 1 1 1
Lattice spacing in x,y,z = 3.615 3.615 3.615
variable        Lx equal 65
variable        Ly equal 3
variable        Lz equal 260
variable        boxLZ equal 270
region          SYSTEM block -65 65 -3 3 -260 0 units lattice
region          BOX block -65 65 -3 3 -270 5 units lattice
create_box      1 BOX
Created orthogonal box = (-234.975 -10.845 -976.05) to (234.975 10.845 18.075)
create_atoms    1 region SYSTEM
Created 812760 atoms

delete_atoms     porosity BOX 0.001 17062
Deleted 754 atoms, new total = 812006

#---------------------------------------------------------------------

pair_style      eam/alloy
pair_coeff  	  * * Cu01.eam.alloy Cu

#----------------------------------------------------------------------
velocity       all create 300.0 31603 mom yes rot yes dist gaussian
fix             1 all npt temp 300 300 0.1 iso 0.0 0.0 2
run      10000
  1 neighbor list requests
  update every 1 steps, delay 10 steps, check yes
Setting up Verlet run ...
  Unit style  : metal
  Current step: 0
  Time step   : 0.001
Step Temp E_pair E_mol TotEng Press Volume
0          300   -2871798.3            0   -2840310.3    2716.8818     10133330
Loop time of 139.386 on 512 procs for 10000 steps with 812006 atoms

unfix 1

fix            2 all nvt temp 300.0 300.0 0.1

run      10000
Setting up Verlet run ...
  Unit style  : metal
  Current step: 10000
  Time step   : 0.001
Step Temp E_pair E_mol TotEng Press
10000    299.79829   -2839667.6            0   -2808200.8   -26.836554
Loop time of 133.126 on 512 procs for 10000 steps with 812006 atoms

reset_timestep 0
unfix    2
#---------------------- DEFINE Laser GERION and GROUP ----------------
region       R1  block -75  75  INF  INF  INF  5  units box
group        G1 region R1
259229 atoms in group G1
group        G2 subtract all G1
552777 atoms in group G2

#define     temperature/pressure calculation  group
variable    x1atom atom "x>=0  &&  x<4 &&  z>-40 && z<1"     ##NEW!!!!!!!!!!!!
variable    x2atom atom "x>=-234.98  &&  x<-230.98 &&  z>-40 && z<1"
variable    x3atom atom "x>=0  &&  x<4 &&  z>-20 && z<1"
variable    x4atom atom "x>=-234.98  &&  x<-230.98 &&  z>-20 && z<1"
variable    x5atom atom "x>=196  &&  x<200 &&  z>-40 && z<1"

group       x1atom variable x1atom
327 atoms in group x1atom
group       x2atom variable x2atom
276 atoms in group x2atom
group       x3atom variable x3atom
171 atoms in group x3atom
group       x4atom variable x4atom
144 atoms in group x4atom
group       x5atom variable x5atom
397 atoms in group x5atom

compute      COM1x x1atom com
compute      COM2x x2atom com
compute      COM3x x3atom com
compute      COM4x x4atom com
compute      COM5x x5atom com

compute      COMall all com

#Temperature profile
#variable      Tprofile atom 300*(1+(step/5000)*2.5*exp(z/40))
#variable tmp equal "lz"
variable      Tprofile atom  300+600*(step/5000)*exp(z/40)*exp(-x*x/1289)

# ------------------------- SETTINGS ---------------------------------
thermo          100
thermo_style    custom step lx pxx pyy pzz temp c_COM1x[1] c_COM1x[2] c_COM1x[3] c_COM2x[1] c_COM2x[2] c_COM2x[3] c_COM3x[1] c_COM3x[2] c_COM3x[3] c_COM4x[1] c_COM4x[2] c_COM4x[3]  c_COM5x[1] c_COM5x[2] c_COM5x[3] c_COMall[1] c_COMall[2] c_COMall[3]

timestep       0.002

compute dispall all displace/atom
# ---------------- Run Laser Material Interaction --------------------
#dump          1 all custom 1000 dump/z1dump.atom id type x y z c_dispall[1]  c_dispall[2]  c_dispall[3] c_dispall[4]
#dump          2 all cfg 100 cfg/*.cfg mass type xs ys zs
#dump_modify   2 element Al

#relax for 2 PS
#fix           1 all nvt temp 300.0 300.0 0.1
#run  1000
#unfix         1

fix           1  all nve
fix           3temp  all  langevin  v_Tprofile  0  0.1  378411   #TEST ALL
run           5000
Setting up Verlet run ...
  Unit style  : metal
  Current step: 0
  Time step   : 0.002
Step Lx Pxx Pyy Pzz Temp COM1x[1] COM1x[2] COM1x[3] COM2x[1] COM2x[2] COM2x[3] COM3x[1] COM3x[2] COM3x[3] COM4x[1] COM4x[2] COM4x[3] COM5x[1] COM5x[2] COM5x[3] COMall[1 COMall[2 COMall[3
0    472.05329    -436.6567   -426.29836   -364.01024    299.71168    2.2969991   -1.1522848   -19.453238   -233.37221  -0.89294666   -19.481634    2.2890292    -1.265116   -9.7244787   -233.39616   -0.8763885   -9.4780916    197.97291  -0.76860356   -19.401795  -0.90518768  -0.90758907    -469.9056
Averages over the last 26 of 51 rows, steps 2500 to 5000:
Lx Pxx Pyy Pzz Temp COM1x[1] COM1x[2] COM1x[3] COM2x[1] COM2x[2] COM2x[3] COM3x[1] COM3x[2] COM3x[3] COM4x[1] COM4x[2] COM4x[3] COM5x[1] COM5x[2] COM5x[3] COMall[1 COMall[2 COMall[3
472.053 -306.261 -295.642 -248.893 302.757 2.30338 -1.12008 -19.3818 -233.327 -0.875845 -19.4588 2.30472 -1.2182 -9.55003 -233.339 -0.883526 -9.45907 198.009 -0.76294 -19.4032 -0.906805 -0.907341 -469.907
Loop time of 70.3545 on 512 procs for 5000 steps with 812006 atoms

variable  com1_x equal "c_COM1x[1]"
variable  com1_y equal "c_COM1x[2]"
variable  com1_z equal "c_COM1x[3]"
variable  com2_x equal "c_COM2x[1]"
variable  com2_y equal "c_COM2x[2]"
variable  com2_z equal "c_COM2x[3]"
variable  com3_x equal "c_COM3x[1]"
variable  com3_y equal "c_COM3x[2]"
variable  com3_z equal "c_COM3x[3]"
variable  com4_x equal "c_COM4x[1]"
variable  com4_y equal "c_COM4x[2]"
variable  com4_z equal "c_COM4x[3]"
variable  com5_x equal "c_COM5x[1]"
variable  com5_y equal "c_COM5x[2]"
variable  com5_z equal "c_COM5x[3]"
variable  comall_x equal "c_COMall[1]"
variable  comall_y equal "c_COMall[2]"
variable  comall_z equal "c_COMall[3]"

#-------------------------- Wave Propagation -------------------------
unfix        3temp
run          1000000
Setting up Verlet run ...
  Unit style  : metal
  Current step: 5000
  Time step   : 0.002
Step Lx Pxx Pyy Pzz Temp COM1x[1] COM1x[2] COM1x[3] COM2x[1] COM2x[2] COM2x[3] COM3x[1] COM3x[2] COM3x[3] COM4x[1] COM4x[2] COM4x[3] COM5x[1] COM5x[2] COM5x[3] COMall[1 COMall[2 COMall[3
5000    472.05329    -268.5332   -230.41574   -209.73274    303.71156    2.3064203   -1.1406702   -19.359509   -233.30674  -0.87300288   -19.491182    2.3079504   -1.2728783   -9.5277794   -233.30114  -0.87317948   -9.4950627    198.00212  -0.80201569   -19.409649  -0.90631849  -0.90908161   -469.90934
Averages over the last 5001 of 10001 rows, steps 505000 to 1005000:
Lx Pxx Pyy Pzz Temp COM1x[1] COM1x[2] COM1x[3] COM2x[1] COM2x[2] COM2x[3] COM3x[1] COM3x[2] COM3x[3] COM4x[1] COM4x[2] COM4x[3] COM5x[1] COM5x[2] COM5x[3] COMall[1 COMall[2 COMall[3
472.053 -110.488 -103.954 -3.59636 303.629 5.66888 -0.373054 -20.6425 -229.937 -0.198028 -20.5567 5.66421 -0.479531 -10.8695 -229.937 -0.198082 -10.5656 201.346 -0.117882 -20.5551 2.46283 -0.198007 -471.016
Loop time of 13348.6 on 512 procs for 1000000 steps with 812006 atoms
