fission-0183
fission-0183
fission-0183
fission-0183
fission-0183
fission-0183
fission-0183
fission-0183
fission-0183
fission-0183
fission-0183
fission-0183
fission-0183
fission-0183
fission-0183
fission-0183
fission-0183
fission-0183
fission-0183
fission-0183
fission-0183
fission-0183
fission-0183
fission-0183
fission-0183
fission-0183
fission-0183
fission-0183
fission-0183
fission-0183
fission-0183
fission-0183
fission-0179
fission-0179
fission-0179
fission-0179
fission-0179
fission-0179
fission-0179
fission-0179
fission-0179
fission-0179
fission-0179
fission-0179
fission-0179
fission-0179
fission-0179
fission-0179
fission-0179
fission-0179
fission-0179
fission-0179
fission-0179
fission-0179
fission-0179
fission-0179
fission-0179
fission-0179
fission-0179
fission-0179
fission-0179
fission-0179
fission-0179
fission-0179
fission-0188
fission-0188
fission-0188
fission-0188
fission-0188
fission-0188
fission-0188
fission-0188
fission-0188
fission-0188
fission-0188
fission-0188
fission-0188
fission-0188
fission-0188
fission-0188
fission-0188
fission-0188
fission-0188
fission-0188
fission-0188
fission-0188
fission-0188
fission-0188
fission-0188
fission-0188
fission-0188
fission-0188
fission-0188
fission-0188
fission-0188
fission-0188
fission-0195
fission-0195
fission-0195
fission-0195
fission-0195
fission-0195
fission-0195
fission-0195
fission-0195
fission-0195
fission-0195
fission-0195
fission-0195
fission-0195
fission-0195
fission-0195
fission-0195
fission-0195
fission-0195
fission-0195
fission-0195
fission-0195
fission-0195
fission-0195
fission-0195
fission-0195
fission-0195
fission-0195
fission-0195
fission-0195
fission-0195
fission-0195
fission-0172
fission-0172
fission-0172
fission-0172
fission-0172
fission-0172
fission-0172
fission-0172
fission-0172
fission-0172
fission-0172
fission-0172
fission-0172
fission-0172
fission-0172
fission-0172
fission-0172
fission-0172
fission-0172
fission-0172
fission-0172
fission-0172
fission-0172
fission-0172
fission-0172
fission-0172
fission-0172
fission-0172
fission-0172
fission-0172
fission-0172
fission-0172
fission-0190
fission-0190
fission-0190
fission-0190
fission-0190
fission-0190
fission-0190
fission-0190
fission-0190
fission-0190
fission-0190
fission-0190
fission-0190
fission-0190
fission-0190
fission-0190
fission-0190
fission-0190
fission-0190
fission-0190
fission-0190
fission-0190
fission-0190
fission-0190
fission-0190
fission-0190
fission-0190
fission-0190
fission-0190
fission-0190
fission-0190
fission-0190
fission-0173
fission-0173
fission-0173
fission-0173
fission-0173
fission-0173
fission-0173
fission-0173
fission-0173
fission-0173
fission-0173
fission-0173
fission-0173
fission-0173
fission-0173
fission-0173
fission-0173
fission-0173
fission-0173
fission-0173
fission-0173
fission-0173
fission-0173
fission-0173
fission-0173
fission-0173
fission-0173
fission-0173
fission-0173
fission-0173
fission-0173
fission-0173
fission-0171
fission-0171
fission-0171
fission-0171
fission-0171
fission-0171
fission-0171
fission-0171
fission-0171
fission-0171
fission-0171
fission-0171
fission-0171
fission-0171
fission-0171
fission-0171
fission-0171
fission-0171
fission-0171
fission-0171
fission-0171
fission-0171
fission-0171
fission-0171
fission-0171
fission-0171
fission-0171
fission-0171
fission-0171
fission-0171
fission-0171
fission-0171
fission-0180
fission-0180
fission-0180
fission-0180
fission-0180
fission-0180
fission-0180
fission-0180
fission-0180
fission-0180
fission-0180
fission-0180
fission-0180
fission-0180
fission-0180
fission-0180
fission-0180
fission-0180
fission-0180
fission-0180
fission-0180
fission-0180
fission-0180
fission-0180
fission-0180
fission-0180
fission-0180
fission-0180
fission-0180
fission-0180
fission-0180
fission-0180
fission-0181
fission-0181
fission-0181
fission-0181
fission-0181
fission-0181
fission-0181
fission-0181
fission-0181
fission-0181
fission-0181
fission-0181
fission-0181
fission-0181
fission-0181
fission-0181
fission-0181
fission-0181
fission-0181
fission-0181
fission-0181
fission-0181
fission-0181
fission-0181
fission-0181
fission-0181
fission-0181
fission-0181
fission-0181
fission-0181
fission-0181
fission-0181
fission-0187
fission-0187
fission-0187
fission-0187
fission-0187
fission-0187
fission-0187
fission-0187
fission-0187
fission-0187
fission-0187
fission-0187
fission-0187
fission-0187
fission-0187
fission-0187
fission-0187
fission-0187
fission-0187
fission-0187
fission-0187
fission-0187
fission-0187
fission-0187
fission-0187
fission-0187
fission-0187
fission-0187
fission-0187
fission-0187
fission-0187
fission-0187
fission-0186
fission-0186
fission-0186
fission-0186
fission-0186
fission-0186
fission-0186
fission-0186
fission-0186
fission-0186
fission-0186
fission-0186
fission-0186
fission-0186
fission-0186
fission-0186
fission-0186
fission-0186
fission-0186
fission-0186
fission-0186
fission-0186
fission-0186
fission-0186
fission-0186
fission-0186
fission-0186
fission-0186
fission-0186
fission-0186
fission-0186
fission-0186
fission-0189
fission-0189
fission-0189
fission-0189
fission-0189
fission-0189
fission-0189
fission-0189
fission-0189
fission-0189
fission-0189
fission-0189
fission-0189
fission-0189
fission-0189
fission-0189
fission-0189
fission-0189
fission-0189
fission-0189
fission-0189
fission-0189
fission-0189
fission-0189
fission-0189
fission-0189
fission-0189
fission-0189
fission-0189
fission-0189
fission-0189
fission-0189
fission-0194
fission-0194
fission-0194
fission-0194
fission-0194
fission-0194
fission-0194
fission-0194
fission-0194
fission-0194
fission-0194
fission-0194
fission-0194
fission-0194
fission-0194
fission-0194
fission-0194
fission-0194
fission-0194
fission-0194
fission-0194
fission-0194
fission-0194
fission-0194
fission-0194
fission-0194
fission-0194
fission-0194
fission-0194
fission-0194
fission-0194
fission-0194
fission-0170
fission-0170
fission-0170
fission-0170
fission-0170
fission-0170
fission-0170
fission-0170
fission-0170
fission-0170
fission-0170
fission-0170
fission-0170
fission-0170
fission-0170
fission-0170
fission-0170
fission-0170
fission-0170
fission-0170
fission-0170
fission-0170
fission-0170
fission-0170
fission-0170
fission-0170
fission-0170
fission-0170
fission-0170
fission-0170
fission-0170
fission-0170
fission-0193
fission-0193
fission-0193
fission-0193
fission-0193
fission-0193
fission-0193
fission-0193
fission-0193
fission-0193
fission-0193
fission-0193
fission-0193
fission-0193
fission-0193
fission-0193
fission-0193
fission-0193
fission-0193
fission-0193
fission-0193
fission-0193
fission-0193
fission-0193
fission-0193
fission-0193
fission-0193
fission-0193
fission-0193
fission-0193
fission-0193
fission-0193

The following PBS extra args (PBS_EXTRA_ARGS) will be used: -P ldrd
The following lammps extra args (LAMMPS_EXTRA_ARGS) will be used:
LAMMPS (16 Feb 2016)
#log		log.c
units           metal
dimension       3
boundary        p p p
atom_style      atomic
shell         mkdir  cfg
shell         mkdir  dump

# ----------------------- ATOM DEFINITION & Force Field -------------
# ----------------------- ATOM DEFINITION ----------------------------
lattice         fcc 4.024845358 #origin 0.0 0.0 0.0 orient x 1 -1 0 orient y 1 1 -2 orient z 1 1 1
Lattice spacing in x,y,z = 4.02485 4.02485 4.02485
variable        Lx equal 52
variable        Ly equal 2
variable        Lz equal 208
variable        boxLZ equal 218
region          SYSTEM block -52 52 -2 2 -208 0 units lattice
region          BOX block -52 52 -2 2 -218 5 units lattice
create_box      1 BOX
Created orthogonal box = (-209.292 -8.04969 -877.416) to (209.292 8.04969 20.1242)
create_atoms    1 region SYSTEM
Created 346944 atoms

delete_atoms     porosity BOX 0.01 29952    ##random seed 482793
Deleted 3526 atoms, new total = 343418

#---------------------------------------------------------------------------------
pair_style      eam/alloy
pair_coeff  	  * * Al_wkg_MSMSE_2009.set Al

#----------------------------------------------------------------------------------
velocity       all create 300.0 20996 mom yes rot yes dist gaussian         ##random seed 4928459

fix             1 all npt temp 300 300 0.1 iso 0.0 0.0 2
run      10000
  1 neighbor list requests
  update every 1 steps, delay 10 steps, check yes
Setting up Verlet run ...
  Unit style  : metal
  Current step: 0
  Time step   : 0.001
Step Temp E_pair E_mol TotEng Press Volume
0          300   -905148.03            0   -891830.99    -691.6349    6048473.6
Loop time of 61.9629 on 512 procs for 10000 steps with 343418 atoms

unfix 1

fix            2 all nvt temp 300.0 300.0 0.1

run      10000
Setting up Verlet run ...
  Unit style  : metal
  Current step: 10000
  Time step   : 0.001
Step Temp E_pair E_mol TotEng Press
10000    299.60494   -891581.75            0   -878282.24    44.363824
Loop time of 60.508 on 512 procs for 10000 steps with 343418 atoms

reset_timestep 0
unfix    2
#---------------------- DEFINE Laser GERION and GROUP ----------------
region       R1  block -75  75  INF  INF  INF  5  units box
group        G1 region R1
123223 atoms in group G1
group        G2 subtract all G1
220195 atoms in group G2

#define     temperature/pressure calculation  group
variable    x1atom atom "x>=0  &&  x<4 &&  z>-40 && z<1"     ##NEW!!!!!!!!!!!!
variable    x2atom atom "x>=-209.292  &&  x<-205.292 &&  z>-40 && z<1"
variable    x3atom atom "x>=0  &&  x<4 &&  z>-20 && z<1"
variable    x4atom atom "x>=-209.292  &&  x<-205.292 &&  z>-20 && z<1"
variable    x5atom atom "x>=196  &&  x<200 &&  z>-40 && z<1"

group       x1atom variable x1atom
154 atoms in group x1atom
group       x2atom variable x2atom
166 atoms in group x2atom
group       x3atom variable x3atom
83 atoms in group x3atom
group       x4atom variable x4atom
88 atoms in group x4atom
group       x5atom variable x5atom
166 atoms in group x5atom

compute      COM1x x1atom com
compute      COM2x x2atom com
compute      COM3x x3atom com
compute      COM4x x4atom com
compute      COM5x x5atom com

compute      COMall all com

#Temperature profile
#variable      Tprofile atom 300*(1+(step/5000)*2.5*exp(z/40))
variable      Tprofile atom 300*(1+(step/5000)*2.5*exp(z/75))

# ------------------------- SETTINGS ---------------------------------
thermo          100
thermo_style    custom step lx pxx pyy pzz temp c_COM1x[1] c_COM1x[2] c_COM1x[3] c_COM2x[1] c_COM2x[2] c_COM2x[3] c_COM3x[1] c_COM3x[2] c_COM3x[3] c_COM4x[1] c_COM4x[2] c_COM4x[3]  c_COM5x[1] c_COM5x[2] c_COM5x[3] c_COMall[1] c_COMall[2] c_COMall[3]

timestep       0.002

compute dispall all displace/atom
# ---------------- Run Laser Material Interaction --------------------
#dump          1 all custom 1000 dump/z1dump.atom id type x y z c_dispall[1]  c_dispall[2]  c_dispall[3] c_dispall[4]
#dump          2 all cfg 100 cfg/*.cfg mass type xs ys zs
#dump_modify   2 element Al

#relax for 2 PS
#fix           1 all nvt temp 300.0 300.0 0.1
#run  1000
#unfix         1

fix           1  all nve
fix           3temp  G1  langevin  v_Tprofile  0  0.1  378411   #TEST ALL
run           5000
Setting up Verlet run ...
  Unit style  : metal
  Current step: 0
  Time step   : 0.002
Step Lx Pxx Pyy Pzz Temp COM1x[1] COM1x[2] COM1x[3] COM2x[1] COM2x[2] COM2x[3] COM3x[1] COM3x[2] COM3x[3] COM4x[1] COM4x[2] COM4x[3] COM5x[1] COM5x[2] COM5x[3] COMall[1 COMall[2 COMall[3
0    420.98751   -58.655842   -74.511031   -233.67741    300.58412    1.6713753  -0.69849151   -19.099205   -207.40395  -0.96549744   -19.374987    1.7781109  -0.55944049    -9.244306   -207.44811   -1.0193699   -9.4747227    197.46664   -1.0738829   -19.709047  -0.96377931    -1.013221   -418.58132
Averages over the last 26 of 51 rows, steps 2500 to 5000:
Lx Pxx Pyy Pzz Temp COM1x[1] COM1x[2] COM1x[3] COM2x[1] COM2x[2] COM2x[3] COM3x[1] COM3x[2] COM3x[3] COM4x[1] COM4x[2] COM4x[3] COM5x[1] COM5x[2] COM5x[3] COMall[1 COMall[2 COMall[3
420.988 942.305 904.928 596.911 322.217 1.60612 -0.720764 -18.7524 -207.45 -0.97484 -19.0915 1.73058 -0.490281 -8.73762 -207.467 -1.01202 -9.18665 197.418 -1.04257 -19.3751 -0.935945 -1.0129 -418.563
Loop time of 31.1075 on 512 procs for 5000 steps with 343418 atoms

variable  com1_x equal "c_COM1x[1]"
variable  com1_y equal "c_COM1x[2]"
variable  com1_z equal "c_COM1x[3]"
variable  com2_x equal "c_COM2x[1]"
variable  com2_y equal "c_COM2x[2]"
variable  com2_z equal "c_COM2x[3]"
variable  com3_x equal "c_COM3x[1]"
variable  com3_y equal "c_COM3x[2]"
variable  com3_z equal "c_COM3x[3]"
variable  com4_x equal "c_COM4x[1]"
variable  com4_y equal "c_COM4x[2]"
variable  com4_z equal "c_COM4x[3]"
variable  com5_x equal "c_COM5x[1]"
variable  com5_y equal "c_COM5x[2]"
variable  com5_z equal "c_COM5x[3]"
variable  comall_x equal "c_COMall[1]"
variable  comall_y equal "c_COMall[2]"
variable  comall_z equal "c_COMall[3]"

#-------------------------- Wave Propagation -------------------------
unfix        3temp
run          1000000
Setting up Verlet run ...
  Unit style  : metal
  Current step: 5000
  Time step   : 0.002
Step Lx Pxx Pyy Pzz Temp COM1x[1] COM1x[2] COM1x[3] COM2x[1] COM2x[2] COM2x[3] COM3x[1] COM3x[2] COM3x[3] COM4x[1] COM4x[2] COM4x[3] COM5x[1] COM5x[2] COM5x[3] COMall[1 COMall[2 COMall[3
5000    420.98751    1276.2154    1212.9229    814.98701    330.65896    1.6203888  -0.66075497   -18.570471    -207.4342  -0.99420044   -19.113414    1.7942139  -0.48902109   -8.4589035   -207.41849  -0.99084713   -9.2111418    197.46519   -1.0608675   -19.448412  -0.95012876   -1.0092213   -418.57665
Averages over the last 5001 of 10001 rows, steps 505000 to 1005000:
Lx Pxx Pyy Pzz Temp COM1x[1] COM1x[2] COM1x[3] COM2x[1] COM2x[2] COM2x[3] COM3x[1] COM3x[2] COM3x[3] COM4x[1] COM4x[2] COM4x[3] COM5x[1] COM5x[2] COM5x[3] COMall[1 COMall[2 COMall[3
420.988 833.826 814.708 -7.37112 332.453 -12.9821 1.34624 -30.047 -222.011 1.16333 -30.1433 -12.8465 1.56981 -20.204 -222.082 1.09853 -20.2772 182.762 1.03644 -30.4661 -15.5592 1.07196 -430.151
Loop time of 5914.72 on 512 procs for 1000000 steps with 343418 atoms
