fission-0329
fission-0329
fission-0329
fission-0329
fission-0329
fission-0329
fission-0329
fission-0329
fission-0329
fission-0329
fission-0329
fission-0329
fission-0329
fission-0329
fission-0329
fission-0329
fission-0329
fission-0329
fission-0329
fission-0329
fission-0329
fission-0329
fission-0329
fission-0329
fission-0329
fission-0329
fission-0329
fission-0329
fission-0329
fission-0329
fission-0329
fission-0329
fission-0326
fission-0326
fission-0326
fission-0326
fission-0326
fission-0326
fission-0326
fission-0326
fission-0326
fission-0326
fission-0326
fission-0326
fission-0326
fission-0326
fission-0326
fission-0326
fission-0326
fission-0326
fission-0326
fission-0326
fission-0326
fission-0326
fission-0326
fission-0326
fission-0326
fission-0326
fission-0326
fission-0326
fission-0326
fission-0326
fission-0326
fission-0326
fission-0196
fission-0196
fission-0196
fission-0196
fission-0196
fission-0196
fission-0196
fission-0196
fission-0196
fission-0196
fission-0196
fission-0196
fission-0196
fission-0196
fission-0196
fission-0196
fission-0196
fission-0196
fission-0196
fission-0196
fission-0196
fission-0196
fission-0196
fission-0196
fission-0196
fission-0196
fission-0196
fission-0196
fission-0196
fission-0196
fission-0196
fission-0196
fission-0249
fission-0249
fission-0249
fission-0249
fission-0249
fission-0249
fission-0249
fission-0249
fission-0249
fission-0249
fission-0249
fission-0249
fission-0249
fission-0249
fission-0249
fission-0249
fission-0249
fission-0249
fission-0249
fission-0249
fission-0249
fission-0249
fission-0249
fission-0249
fission-0249
fission-0249
fission-0249
fission-0249
fission-0249
fission-0249
fission-0249
fission-0249
fission-0250
fission-0250
fission-0250
fission-0250
fission-0250
fission-0250
fission-0250
fission-0250
fission-0250
fission-0250
fission-0250
fission-0250
fission-0250
fission-0250
fission-0250
fission-0250
fission-0250
fission-0250
fission-0250
fission-0250
fission-0250
fission-0250
fission-0250
fission-0250
fission-0250
fission-0250
fission-0250
fission-0250
fission-0250
fission-0250
fission-0250
fission-0250
fission-0257
fission-0257
fission-0257
fission-0257
fission-0257
fission-0257
fission-0257
fission-0257
fission-0257
fission-0257
fission-0257
fission-0257
fission-0257
fission-0257
fission-0257
fission-0257
fission-0257
fission-0257
fission-0257
fission-0257
fission-0257
fission-0257
fission-0257
fission-0257
fission-0257
fission-0257
fission-0257
fission-0257
fission-0257
fission-0257
fission-0257
fission-0257
fission-0258
fission-0258
fission-0258
fission-0258
fission-0258
fission-0258
fission-0258
fission-0258
fission-0258
fission-0258
fission-0258
fission-0258
fission-0258
fission-0258
fission-0258
fission-0258
fission-0258
fission-0258
fission-0258
fission-0258
fission-0258
fission-0258
fission-0258
fission-0258
fission-0258
fission-0258
fission-0258
fission-0258
fission-0258
fission-0258
fission-0258
fission-0258
fission-0263
fission-0263
fission-0263
fission-0263
fission-0263
fission-0263
fission-0263
fission-0263
fission-0263
fission-0263
fission-0263
fission-0263
fission-0263
fission-0263
fission-0263
fission-0263
fission-0263
fission-0263
fission-0263
fission-0263
fission-0263
fission-0263
fission-0263
fission-0263
fission-0263
fission-0263
fission-0263
fission-0263
fission-0263
fission-0263
fission-0263
fission-0263
fission-0299
fission-0299
fission-0299
fission-0299
fission-0299
fission-0299
fission-0299
fission-0299
fission-0299
fission-0299
fission-0299
fission-0299
fission-0299
fission-0299
fission-0299
fission-0299
fission-0299
fission-0299
fission-0299
fission-0299
fission-0299
fission-0299
fission-0299
fission-0299
fission-0299
fission-0299
fission-0299
fission-0299
fission-0299
fission-0299
fission-0299
fission-0299
fission-0261
fission-0261
fission-0261
fission-0261
fission-0261
fission-0261
fission-0261
fission-0261
fission-0261
fission-0261
fission-0261
fission-0261
fission-0261
fission-0261
fission-0261
fission-0261
fission-0261
fission-0261
fission-0261
fission-0261
fission-0261
fission-0261
fission-0261
fission-0261
fission-0261
fission-0261
fission-0261
fission-0261
fission-0261
fission-0261
fission-0261
fission-0261
fission-0318
fission-0318
fission-0318
fission-0318
fission-0318
fission-0318
fission-0318
fission-0318
fission-0318
fission-0318
fission-0318
fission-0318
fission-0318
fission-0318
fission-0318
fission-0318
fission-0318
fission-0318
fission-0318
fission-0318
fission-0318
fission-0318
fission-0318
fission-0318
fission-0318
fission-0318
fission-0318
fission-0318
fission-0318
fission-0318
fission-0318
fission-0318
fission-0320
fission-0320
fission-0320
fission-0320
fission-0320
fission-0320
fission-0320
fission-0320
fission-0320
fission-0320
fission-0320
fission-0320
fission-0320
fission-0320
fission-0320
fission-0320
fission-0320
fission-0320
fission-0320
fission-0320
fission-0320
fission-0320
fission-0320
fission-0320
fission-0320
fission-0320
fission-0320
fission-0320
fission-0320
fission-0320
fission-0320
fission-0320
fission-0074
fission-0074
fission-0074
fission-0074
fission-0074
fission-0074
fission-0074
fission-0074
fission-0074
fission-0074
fission-0074
fission-0074
fission-0074
fission-0074
fission-0074
fission-0074
fission-0074
fission-0074
fission-0074
fission-0074
fission-0074
fission-0074
fission-0074
fission-0074
fission-0074
fission-0074
fission-0074
fission-0074
fission-0074
fission-0074
fission-0074
fission-0074
fission-0238
fission-0238
fission-0238
fission-0238
fission-0238
fission-0238
fission-0238
fission-0238
fission-0238
fission-0238
fission-0238
fission-0238
fission-0238
fission-0238
fission-0238
fission-0238
fission-0238
fission-0238
fission-0238
fission-0238
fission-0238
fission-0238
fission-0238
fission-0238
fission-0238
fission-0238
fission-0238
fission-0238
fission-0238
fission-0238
fission-0238
fission-0238
fission-0217
fission-0217
fission-0217
fission-0217
fission-0217
fission-0217
fission-0217
fission-0217
fission-0217
fission-0217
fission-0217
fission-0217
fission-0217
fission-0217
fission-0217
fission-0217
fission-0217
fission-0217
fission-0217
fission-0217
fission-0217
fission-0217
fission-0217
fission-0217
fission-0217
fission-0217
fission-0217
fission-0217
fission-0217
fission-0217
fission-0217
fission-0217
fission-0290
fission-0290
fission-0290
fission-0290
fission-0290
fission-0290
fission-0290
fission-0290
fission-0290
fission-0290
fission-0290
fission-0290
fission-0290
fission-0290
fission-0290
fission-0290
fission-0290
fission-0290
fission-0290
fission-0290
fission-0290
fission-0290
fission-0290
fission-0290
fission-0290
fission-0290
fission-0290
fission-0290
fission-0290
fission-0290
fission-0290
fission-0290

The following PBS extra args (PBS_EXTRA_ARGS) will be used: -P ldrd
The following lammps extra args (LAMMPS_EXTRA_ARGS) will be used:
LAMMPS (16 Feb 2016)
#log		log.c
units           metal
dimension       3
boundary        p p p
atom_style      atomic
shell         mkdir  cfg
shell         mkdir  dump

# ----------------------- ATOM DEFINITION & Force Field -------------
# ----------------------- ATOM DEFINITION ----------------------------
lattice         fcc 4.024845358 #origin 0.0 0.0 0.0 orient x 1 -1 0 orient y 1 1 -2 orient z 1 1 1
Lattice spacing in x,y,z = 4.02485 4.02485 4.02485
variable        Lx equal 52
variable        Ly equal 2
variable        Lz equal 208
variable        boxLZ equal 218
region          SYSTEM block -52 52 -2 2 -208 0 units lattice
region          BOX block -52 52 -2 2 -218 5 units lattice
create_box      1 BOX
Created orthogonal box = (-209.292 -8.04969 -877.416) to (209.292 8.04969 20.1242)
create_atoms    1 region SYSTEM
Created 346944 atoms

delete_atoms     porosity BOX 0.01 12258    ##random seed 482793
Deleted 3532 atoms, new total = 343412

#---------------------------------------------------------------------------------
pair_style      eam/alloy
pair_coeff  	  * * Al_wkg_MSMSE_2009.set Al

#----------------------------------------------------------------------------------
velocity       all create 300.0 32278 mom yes rot yes dist gaussian         ##random seed 4928459

fix             1 all npt temp 300 300 0.1 iso 0.0 0.0 2
run      10000
  1 neighbor list requests
  update every 1 steps, delay 10 steps, check yes
Setting up Verlet run ...
  Unit style  : metal
  Current step: 0
  Time step   : 0.001
Step Temp E_pair E_mol TotEng Press Volume
0          300   -905125.98            0   -891809.17   -692.90849    6048473.6
Loop time of 57.7184 on 512 procs for 10000 steps with 343412 atoms

unfix 1

fix            2 all nvt temp 300.0 300.0 0.1

run      10000
Setting up Verlet run ...
  Unit style  : metal
  Current step: 10000
  Time step   : 0.001
Step Temp E_pair E_mol TotEng Press
10000    299.66729    -891604.1            0   -878302.06    12.125843
Loop time of 58.1068 on 512 procs for 10000 steps with 343412 atoms

reset_timestep 0
unfix    2
#---------------------- DEFINE Laser GERION and GROUP ----------------
region       R1  block -75  75  INF  INF  INF  5  units box
group        G1 region R1
122862 atoms in group G1
group        G2 subtract all G1
220550 atoms in group G2

#define     temperature/pressure calculation  group
variable    x1atom atom "x>=0  &&  x<4 &&  z>-40 && z<1"     ##NEW!!!!!!!!!!!!
variable    x2atom atom "x>=-209.292  &&  x<-205.292 &&  z>-40 && z<1"
variable    x3atom atom "x>=0  &&  x<4 &&  z>-20 && z<1"
variable    x4atom atom "x>=-209.292  &&  x<-205.292 &&  z>-20 && z<1"
variable    x5atom atom "x>=196  &&  x<200 &&  z>-40 && z<1"

group       x1atom variable x1atom
164 atoms in group x1atom
group       x2atom variable x2atom
167 atoms in group x2atom
group       x3atom variable x3atom
86 atoms in group x3atom
group       x4atom variable x4atom
87 atoms in group x4atom
group       x5atom variable x5atom
166 atoms in group x5atom

compute      COM1x x1atom com
compute      COM2x x2atom com
compute      COM3x x3atom com
compute      COM4x x4atom com
compute      COM5x x5atom com

compute      COMall all com

#Temperature profile
#variable      Tprofile atom 300*(1+(step/5000)*2.5*exp(z/40))
variable      Tprofile atom 300*(1+(step/5000)*2.5*exp(z/75))

# ------------------------- SETTINGS ---------------------------------
thermo          100
thermo_style    custom step lx pxx pyy pzz temp c_COM1x[1] c_COM1x[2] c_COM1x[3] c_COM2x[1] c_COM2x[2] c_COM2x[3] c_COM3x[1] c_COM3x[2] c_COM3x[3] c_COM4x[1] c_COM4x[2] c_COM4x[3]  c_COM5x[1] c_COM5x[2] c_COM5x[3] c_COMall[1] c_COMall[2] c_COMall[3]

timestep       0.002

compute dispall all displace/atom
# ---------------- Run Laser Material Interaction --------------------
#dump          1 all custom 1000 dump/z1dump.atom id type x y z c_dispall[1]  c_dispall[2]  c_dispall[3] c_dispall[4]
#dump          2 all cfg 100 cfg/*.cfg mass type xs ys zs
#dump_modify   2 element Al

#relax for 2 PS
#fix           1 all nvt temp 300.0 300.0 0.1
#run  1000
#unfix         1

fix           1  all nve
fix           3temp  G1  langevin  v_Tprofile  0  0.1  378411   #TEST ALL
run           5000
Setting up Verlet run ...
  Unit style  : metal
  Current step: 0
  Time step   : 0.002
Step Lx Pxx Pyy Pzz Temp COM1x[1] COM1x[2] COM1x[3] COM2x[1] COM2x[2] COM2x[3] COM3x[1] COM3x[2] COM3x[3] COM4x[1] COM4x[2] COM4x[3] COM5x[1] COM5x[2] COM5x[3] COMall[1 COMall[2 COMall[3
0    420.98644    2.3572968   -38.348167   -157.79373    300.26699    1.2639402   -1.0042819   -19.551048   -207.28461   -1.0823025   -19.560982    1.2895067  -0.97082988   -9.5175149   -207.30182   -1.0899253   -9.3662849     197.5569   -1.0774994   -19.489471  -0.99477697   -1.0117155   -418.57359
Averages over the last 26 of 51 rows, steps 2500 to 5000:
Lx Pxx Pyy Pzz Temp COM1x[1] COM1x[2] COM1x[3] COM2x[1] COM2x[2] COM2x[3] COM3x[1] COM3x[2] COM3x[3] COM4x[1] COM4x[2] COM4x[3] COM5x[1] COM5x[2] COM5x[3] COMall[1 COMall[2 COMall[3
420.986 996.964 951.698 670.988 322.314 1.19431 -0.979897 -19.179 -207.301 -0.998474 -19.3971 1.23212 -0.900511 -8.93176 -207.285 -0.982084 -9.16439 197.575 -1.03652 -19.3177 -0.982783 -1.01155 -418.575
Loop time of 30.7473 on 512 procs for 5000 steps with 343412 atoms

variable  com1_x equal "c_COM1x[1]"
variable  com1_y equal "c_COM1x[2]"
variable  com1_z equal "c_COM1x[3]"
variable  com2_x equal "c_COM2x[1]"
variable  com2_y equal "c_COM2x[2]"
variable  com2_z equal "c_COM2x[3]"
variable  com3_x equal "c_COM3x[1]"
variable  com3_y equal "c_COM3x[2]"
variable  com3_z equal "c_COM3x[3]"
variable  com4_x equal "c_COM4x[1]"
variable  com4_y equal "c_COM4x[2]"
variable  com4_z equal "c_COM4x[3]"
variable  com5_x equal "c_COM5x[1]"
variable  com5_y equal "c_COM5x[2]"
variable  com5_z equal "c_COM5x[3]"
variable  comall_x equal "c_COMall[1]"
variable  comall_y equal "c_COMall[2]"
variable  comall_z equal "c_COMall[3]"

#-------------------------- Wave Propagation -------------------------
unfix        3temp
run          1000000
Setting up Verlet run ...
  Unit style  : metal
  Current step: 5000
  Time step   : 0.002
Step Lx Pxx Pyy Pzz Temp COM1x[1] COM1x[2] COM1x[3] COM2x[1] COM2x[2] COM2x[3] COM3x[1] COM3x[2] COM3x[3] COM4x[1] COM4x[2] COM4x[3] COM5x[1] COM5x[2] COM5x[3] COMall[1 COMall[2 COMall[3
5000    420.98644    1321.2631    1273.3156    869.33146     330.5981    1.1992006  -0.88289206     -18.9416   -207.36137   -1.0495564   -19.305902    1.2471522  -0.75768896   -8.5994026   -207.30573   -1.0077897   -9.0737865    197.58535   -1.2136291    -19.23825  -0.99158749   -1.0139701   -418.58788
Averages over the last 5001 of 10001 rows, steps 505000 to 1005000:
Lx Pxx Pyy Pzz Temp COM1x[1] COM1x[2] COM1x[3] COM2x[1] COM2x[2] COM2x[3] COM3x[1] COM3x[2] COM3x[3] COM4x[1] COM4x[2] COM4x[3] COM5x[1] COM5x[2] COM5x[3] COMall[1 COMall[2 COMall[3
420.986 843.235 823.799 -6.74412 332.49 -28.5433 -1.55647 -23.9693 -237.091 -1.62361 -23.9527 -28.5238 -1.53676 -13.9456 -237.093 -1.61752 -13.7186 167.72 -1.64481 -23.9589 -30.6114 -1.63125 -423.684
Loop time of 5707.04 on 512 procs for 1000000 steps with 343412 atoms
