fission-0265
fission-0265
fission-0265
fission-0265
fission-0265
fission-0265
fission-0265
fission-0265
fission-0265
fission-0265
fission-0265
fission-0265
fission-0265
fission-0265
fission-0265
fission-0265
fission-0265
fission-0265
fission-0265
fission-0265
fission-0265
fission-0265
fission-0265
fission-0265
fission-0265
fission-0265
fission-0265
fission-0265
fission-0265
fission-0265
fission-0265
fission-0265
fission-0271
fission-0271
fission-0271
fission-0271
fission-0271
fission-0271
fission-0271
fission-0271
fission-0271
fission-0271
fission-0271
fission-0271
fission-0271
fission-0271
fission-0271
fission-0271
fission-0271
fission-0271
fission-0271
fission-0271
fission-0271
fission-0271
fission-0271
fission-0271
fission-0271
fission-0271
fission-0271
fission-0271
fission-0271
fission-0271
fission-0271
fission-0271
fission-0252
fission-0252
fission-0252
fission-0252
fission-0252
fission-0252
fission-0252
fission-0252
fission-0252
fission-0252
fission-0252
fission-0252
fission-0252
fission-0252
fission-0252
fission-0252
fission-0252
fission-0252
fission-0252
fission-0252
fission-0252
fission-0252
fission-0252
fission-0252
fission-0252
fission-0252
fission-0252
fission-0252
fission-0252
fission-0252
fission-0252
fission-0252
fission-0266
fission-0266
fission-0266
fission-0266
fission-0266
fission-0266
fission-0266
fission-0266
fission-0266
fission-0266
fission-0266
fission-0266
fission-0266
fission-0266
fission-0266
fission-0266
fission-0266
fission-0266
fission-0266
fission-0266
fission-0266
fission-0266
fission-0266
fission-0266
fission-0266
fission-0266
fission-0266
fission-0266
fission-0266
fission-0266
fission-0266
fission-0266
fission-0273
fission-0273
fission-0273
fission-0273
fission-0273
fission-0273
fission-0273
fission-0273
fission-0273
fission-0273
fission-0273
fission-0273
fission-0273
fission-0273
fission-0273
fission-0273
fission-0273
fission-0273
fission-0273
fission-0273
fission-0273
fission-0273
fission-0273
fission-0273
fission-0273
fission-0273
fission-0273
fission-0273
fission-0273
fission-0273
fission-0273
fission-0273
fission-0267
fission-0267
fission-0267
fission-0267
fission-0267
fission-0267
fission-0267
fission-0267
fission-0267
fission-0267
fission-0267
fission-0267
fission-0267
fission-0267
fission-0267
fission-0267
fission-0267
fission-0267
fission-0267
fission-0267
fission-0267
fission-0267
fission-0267
fission-0267
fission-0267
fission-0267
fission-0267
fission-0267
fission-0267
fission-0267
fission-0267
fission-0267
fission-0272
fission-0272
fission-0272
fission-0272
fission-0272
fission-0272
fission-0272
fission-0272
fission-0272
fission-0272
fission-0272
fission-0272
fission-0272
fission-0272
fission-0272
fission-0272
fission-0272
fission-0272
fission-0272
fission-0272
fission-0272
fission-0272
fission-0272
fission-0272
fission-0272
fission-0272
fission-0272
fission-0272
fission-0272
fission-0272
fission-0272
fission-0272
fission-0274
fission-0274
fission-0274
fission-0274
fission-0274
fission-0274
fission-0274
fission-0274
fission-0274
fission-0274
fission-0274
fission-0274
fission-0274
fission-0274
fission-0274
fission-0274
fission-0274
fission-0274
fission-0274
fission-0274
fission-0274
fission-0274
fission-0274
fission-0274
fission-0274
fission-0274
fission-0274
fission-0274
fission-0274
fission-0274
fission-0274
fission-0274
fission-0275
fission-0275
fission-0275
fission-0275
fission-0275
fission-0275
fission-0275
fission-0275
fission-0275
fission-0275
fission-0275
fission-0275
fission-0275
fission-0275
fission-0275
fission-0275
fission-0275
fission-0275
fission-0275
fission-0275
fission-0275
fission-0275
fission-0275
fission-0275
fission-0275
fission-0275
fission-0275
fission-0275
fission-0275
fission-0275
fission-0275
fission-0275
fission-0276
fission-0276
fission-0276
fission-0276
fission-0276
fission-0276
fission-0276
fission-0276
fission-0276
fission-0276
fission-0276
fission-0276
fission-0276
fission-0276
fission-0276
fission-0276
fission-0276
fission-0276
fission-0276
fission-0276
fission-0276
fission-0276
fission-0276
fission-0276
fission-0276
fission-0276
fission-0276
fission-0276
fission-0276
fission-0276
fission-0276
fission-0276
fission-0279
fission-0279
fission-0279
fission-0279
fission-0279
fission-0279
fission-0279
fission-0279
fission-0279
fission-0279
fission-0279
fission-0279
fission-0279
fission-0279
fission-0279
fission-0279
fission-0279
fission-0279
fission-0279
fission-0279
fission-0279
fission-0279
fission-0279
fission-0279
fission-0279
fission-0279
fission-0279
fission-0279
fission-0279
fission-0279
fission-0279
fission-0279
fission-0256
fission-0256
fission-0256
fission-0256
fission-0256
fission-0256
fission-0256
fission-0256
fission-0256
fission-0256
fission-0256
fission-0256
fission-0256
fission-0256
fission-0256
fission-0256
fission-0256
fission-0256
fission-0256
fission-0256
fission-0256
fission-0256
fission-0256
fission-0256
fission-0256
fission-0256
fission-0256
fission-0256
fission-0256
fission-0256
fission-0256
fission-0256
fission-0262
fission-0262
fission-0262
fission-0262
fission-0262
fission-0262
fission-0262
fission-0262
fission-0262
fission-0262
fission-0262
fission-0262
fission-0262
fission-0262
fission-0262
fission-0262
fission-0262
fission-0262
fission-0262
fission-0262
fission-0262
fission-0262
fission-0262
fission-0262
fission-0262
fission-0262
fission-0262
fission-0262
fission-0262
fission-0262
fission-0262
fission-0262
fission-0260
fission-0260
fission-0260
fission-0260
fission-0260
fission-0260
fission-0260
fission-0260
fission-0260
fission-0260
fission-0260
fission-0260
fission-0260
fission-0260
fission-0260
fission-0260
fission-0260
fission-0260
fission-0260
fission-0260
fission-0260
fission-0260
fission-0260
fission-0260
fission-0260
fission-0260
fission-0260
fission-0260
fission-0260
fission-0260
fission-0260
fission-0260
fission-0253
fission-0253
fission-0253
fission-0253
fission-0253
fission-0253
fission-0253
fission-0253
fission-0253
fission-0253
fission-0253
fission-0253
fission-0253
fission-0253
fission-0253
fission-0253
fission-0253
fission-0253
fission-0253
fission-0253
fission-0253
fission-0253
fission-0253
fission-0253
fission-0253
fission-0253
fission-0253
fission-0253
fission-0253
fission-0253
fission-0253
fission-0253
fission-0254
fission-0254
fission-0254
fission-0254
fission-0254
fission-0254
fission-0254
fission-0254
fission-0254
fission-0254
fission-0254
fission-0254
fission-0254
fission-0254
fission-0254
fission-0254
fission-0254
fission-0254
fission-0254
fission-0254
fission-0254
fission-0254
fission-0254
fission-0254
fission-0254
fission-0254
fission-0254
fission-0254
fission-0254
fission-0254
fission-0254
fission-0254

The following PBS extra args (PBS_EXTRA_ARGS) will be used: -P ldrd
The following lammps extra args (LAMMPS_EXTRA_ARGS) will be used:
LAMMPS (16 Feb 2016)
#log		log.c
units           metal
dimension       3
boundary        p p p
atom_style      atomic
shell         mkdir  cfg
shell         mkdir  dump

# ----------------------- ATOM DEFINITION & Force Field -------------
# ----------------------- ATOM DEFINITION ----------------------------
lattice         fcc 4.024845358 #origin 0.0 0.0 0.0 orient x 1 -1 0 orient y 1 1 -2 orient z 1 1 1
Lattice spacing in x,y,z = 4.02485 4.02485 4.02485
variable        Lx equal 52
variable        Ly equal 2
variable        Lz equal 208
variable        boxLZ equal 218
region          SYSTEM block -52 52 -2 2 -208 0 units lattice
region          BOX block -52 52 -2 2 -218 5 units lattice
create_box      1 BOX
Created orthogonal box = (-209.292 -8.04969 -877.416) to (209.292 8.04969 20.1242)
create_atoms    1 region SYSTEM
Created 346944 atoms

delete_atoms     porosity BOX 0.01 20417    ##random seed 482793
Deleted 3374 atoms, new total = 343570

#---------------------------------------------------------------------------------
pair_style      eam/alloy
pair_coeff  	  * * Al_wkg_MSMSE_2009.set Al

#----------------------------------------------------------------------------------
velocity       all create 300.0 14928 mom yes rot yes dist gaussian         ##random seed 4928459

fix             1 all npt temp 300 300 0.1 iso 0.0 0.0 2
run      10000
  1 neighbor list requests
  update every 1 steps, delay 10 steps, check yes
Setting up Verlet run ...
  Unit style  : metal
  Current step: 0
  Time step   : 0.001
Step Temp E_pair E_mol TotEng Press Volume
0          300   -905666.21            0   -892343.28   -567.09472    6048473.6
Loop time of 62.1127 on 512 procs for 10000 steps with 343570 atoms

unfix 1

fix            2 all nvt temp 300.0 300.0 0.1

run      10000
Setting up Verlet run ...
  Unit style  : metal
  Current step: 10000
  Time step   : 0.001
Step Temp E_pair E_mol TotEng Press
10000    299.89735   -892114.76            0   -878796.38    5.6046735
Loop time of 57.7088 on 512 procs for 10000 steps with 343570 atoms

reset_timestep 0
unfix    2
#---------------------- DEFINE Laser GERION and GROUP ----------------
region       R1  block -75  75  INF  INF  INF  5  units box
group        G1 region R1
123281 atoms in group G1
group        G2 subtract all G1
220289 atoms in group G2

#define     temperature/pressure calculation  group
variable    x1atom atom "x>=0  &&  x<4 &&  z>-40 && z<1"     ##NEW!!!!!!!!!!!!
variable    x2atom atom "x>=-209.292  &&  x<-205.292 &&  z>-40 && z<1"
variable    x3atom atom "x>=0  &&  x<4 &&  z>-20 && z<1"
variable    x4atom atom "x>=-209.292  &&  x<-205.292 &&  z>-20 && z<1"
variable    x5atom atom "x>=196  &&  x<200 &&  z>-40 && z<1"

group       x1atom variable x1atom
155 atoms in group x1atom
group       x2atom variable x2atom
165 atoms in group x2atom
group       x3atom variable x3atom
81 atoms in group x3atom
group       x4atom variable x4atom
86 atoms in group x4atom
group       x5atom variable x5atom
163 atoms in group x5atom

compute      COM1x x1atom com
compute      COM2x x2atom com
compute      COM3x x3atom com
compute      COM4x x4atom com
compute      COM5x x5atom com

compute      COMall all com

#Temperature profile
#variable      Tprofile atom 300*(1+(step/5000)*2.5*exp(z/40))
variable      Tprofile atom 300*(1+(step/5000)*2.5*exp(z/75))

# ------------------------- SETTINGS ---------------------------------
thermo          100
thermo_style    custom step lx pxx pyy pzz temp c_COM1x[1] c_COM1x[2] c_COM1x[3] c_COM2x[1] c_COM2x[2] c_COM2x[3] c_COM3x[1] c_COM3x[2] c_COM3x[3] c_COM4x[1] c_COM4x[2] c_COM4x[3]  c_COM5x[1] c_COM5x[2] c_COM5x[3] c_COMall[1] c_COMall[2] c_COMall[3]

timestep       0.002

compute dispall all displace/atom
# ---------------- Run Laser Material Interaction --------------------
#dump          1 all custom 1000 dump/z1dump.atom id type x y z c_dispall[1]  c_dispall[2]  c_dispall[3] c_dispall[4]
#dump          2 all cfg 100 cfg/*.cfg mass type xs ys zs
#dump_modify   2 element Al

#relax for 2 PS
#fix           1 all nvt temp 300.0 300.0 0.1
#run  1000
#unfix         1

fix           1  all nve
fix           3temp  G1  langevin  v_Tprofile  0  0.1  378411   #TEST ALL
run           5000
Setting up Verlet run ...
  Unit style  : metal
  Current step: 0
  Time step   : 0.002
Step Lx Pxx Pyy Pzz Temp COM1x[1] COM1x[2] COM1x[3] COM2x[1] COM2x[2] COM2x[3] COM3x[1] COM3x[2] COM3x[3] COM4x[1] COM4x[2] COM4x[3] COM5x[1] COM5x[2] COM5x[3] COMall[1 COMall[2 COMall[3
0    421.00053    8.2315089   -26.291809   -222.38933    300.73052    1.6484651  -0.82863523   -19.917483   -207.47863    -1.083257   -19.459819    1.6781784   -1.1571345   -9.4014166   -207.52486   -1.1173262   -9.3502124       197.36   -1.0045244   -19.695363   -1.0296057   -1.0110308   -418.46045
Averages over the last 26 of 51 rows, steps 2500 to 5000:
Lx Pxx Pyy Pzz Temp COM1x[1] COM1x[2] COM1x[3] COM2x[1] COM2x[2] COM2x[3] COM3x[1] COM3x[2] COM3x[3] COM4x[1] COM4x[2] COM4x[3] COM5x[1] COM5x[2] COM5x[3] COMall[1 COMall[2 COMall[3
421.001 978.017 940.96 587.461 322.357 1.60909 -0.77132 -19.645 -207.503 -1.01216 -19.6285 1.61693 -1.07923 -8.9918 -207.508 -1.00404 -9.48762 197.381 -0.968765 -19.8246 -1.02722 -0.995741 -418.499
Loop time of 30.4514 on 512 procs for 5000 steps with 343570 atoms

variable  com1_x equal "c_COM1x[1]"
variable  com1_y equal "c_COM1x[2]"
variable  com1_z equal "c_COM1x[3]"
variable  com2_x equal "c_COM2x[1]"
variable  com2_y equal "c_COM2x[2]"
variable  com2_z equal "c_COM2x[3]"
variable  com3_x equal "c_COM3x[1]"
variable  com3_y equal "c_COM3x[2]"
variable  com3_z equal "c_COM3x[3]"
variable  com4_x equal "c_COM4x[1]"
variable  com4_y equal "c_COM4x[2]"
variable  com4_z equal "c_COM4x[3]"
variable  com5_x equal "c_COM5x[1]"
variable  com5_y equal "c_COM5x[2]"
variable  com5_z equal "c_COM5x[3]"
variable  comall_x equal "c_COMall[1]"
variable  comall_y equal "c_COMall[2]"
variable  comall_z equal "c_COMall[3]"

#-------------------------- Wave Propagation -------------------------
unfix        3temp
run          1000000
Setting up Verlet run ...
  Unit style  : metal
  Current step: 5000
  Time step   : 0.002
Step Lx Pxx Pyy Pzz Temp COM1x[1] COM1x[2] COM1x[3] COM2x[1] COM2x[2] COM2x[3] COM3x[1] COM3x[2] COM3x[3] COM4x[1] COM4x[2] COM4x[3] COM5x[1] COM5x[2] COM5x[3] COMall[1 COMall[2 COMall[3
5000    421.00053    1320.1518    1258.1401    801.95032    330.57673     1.623601   -0.7552627   -19.511546   -207.46986   -1.1041909   -19.565185    1.6670692   -1.1495562   -8.8321891   -207.50336   -1.1044687   -9.3984855    197.43333   -1.1349707   -19.792228   -1.0309458   -1.0034334   -418.51142
Averages over the last 5001 of 10001 rows, steps 505000 to 1005000:
Lx Pxx Pyy Pzz Temp COM1x[1] COM1x[2] COM1x[3] COM2x[1] COM2x[2] COM2x[3] COM3x[1] COM3x[2] COM3x[3] COM4x[1] COM4x[2] COM4x[3] COM5x[1] COM5x[2] COM5x[3] COMall[1 COMall[2 COMall[3
421.001 888.544 865.831 -7.79684 332.659 -11.4763 -10.3352 -26.8211 -220.636 -10.4023 -26.288 -11.5341 -10.5755 -16.2348 -220.669 -10.4386 -16.1377 184.147 -10.4208 -26.4783 -14.2172 -10.3895 -425.773
Loop time of 5683.88 on 512 procs for 1000000 steps with 343570 atoms
