fission-0210
fission-0210
fission-0210
fission-0210
fission-0210
fission-0210
fission-0210
fission-0210
fission-0210
fission-0210
fission-0210
fission-0210
fission-0210
fission-0210
fission-0210
fission-0210
fission-0210
fission-0210
fission-0210
fission-0210
fission-0210
fission-0210
fission-0210
fission-0210
fission-0210
fission-0210
fission-0210
fission-0210
fission-0210
fission-0210
fission-0210
fission-0210
fission-0215
fission-0215
fission-0215
fission-0215
fission-0215
fission-0215
fission-0215
fission-0215
fission-0215
fission-0215
fission-0215
fission-0215
fission-0215
fission-0215
fission-0215
fission-0215
fission-0215
fission-0215
fission-0215
fission-0215
fission-0215
fission-0215
fission-0215
fission-0215
fission-0215
fission-0215
fission-0215
fission-0215
fission-0215
fission-0215
fission-0215
fission-0215
fission-0208
fission-0208
fission-0208
fission-0208
fission-0208
fission-0208
fission-0208
fission-0208
fission-0208
fission-0208
fission-0208
fission-0208
fission-0208
fission-0208
fission-0208
fission-0208
fission-0208
fission-0208
fission-0208
fission-0208
fission-0208
fission-0208
fission-0208
fission-0208
fission-0208
fission-0208
fission-0208
fission-0208
fission-0208
fission-0208
fission-0208
fission-0208
fission-0213
fission-0213
fission-0213
fission-0213
fission-0213
fission-0213
fission-0213
fission-0213
fission-0213
fission-0213
fission-0213
fission-0213
fission-0213
fission-0213
fission-0213
fission-0213
fission-0213
fission-0213
fission-0213
fission-0213
fission-0213
fission-0213
fission-0213
fission-0213
fission-0213
fission-0213
fission-0213
fission-0213
fission-0213
fission-0213
fission-0213
fission-0213
fission-0219
fission-0219
fission-0219
fission-0219
fission-0219
fission-0219
fission-0219
fission-0219
fission-0219
fission-0219
fission-0219
fission-0219
fission-0219
fission-0219
fission-0219
fission-0219
fission-0219
fission-0219
fission-0219
fission-0219
fission-0219
fission-0219
fission-0219
fission-0219
fission-0219
fission-0219
fission-0219
fission-0219
fission-0219
fission-0219
fission-0219
fission-0219
fission-0211
fission-0211
fission-0211
fission-0211
fission-0211
fission-0211
fission-0211
fission-0211
fission-0211
fission-0211
fission-0211
fission-0211
fission-0211
fission-0211
fission-0211
fission-0211
fission-0211
fission-0211
fission-0211
fission-0211
fission-0211
fission-0211
fission-0211
fission-0211
fission-0211
fission-0211
fission-0211
fission-0211
fission-0211
fission-0211
fission-0211
fission-0211
fission-0212
fission-0212
fission-0212
fission-0212
fission-0212
fission-0212
fission-0212
fission-0212
fission-0212
fission-0212
fission-0212
fission-0212
fission-0212
fission-0212
fission-0212
fission-0212
fission-0212
fission-0212
fission-0212
fission-0212
fission-0212
fission-0212
fission-0212
fission-0212
fission-0212
fission-0212
fission-0212
fission-0212
fission-0212
fission-0212
fission-0212
fission-0212
fission-0220
fission-0220
fission-0220
fission-0220
fission-0220
fission-0220
fission-0220
fission-0220
fission-0220
fission-0220
fission-0220
fission-0220
fission-0220
fission-0220
fission-0220
fission-0220
fission-0220
fission-0220
fission-0220
fission-0220
fission-0220
fission-0220
fission-0220
fission-0220
fission-0220
fission-0220
fission-0220
fission-0220
fission-0220
fission-0220
fission-0220
fission-0220
fission-0223
fission-0223
fission-0223
fission-0223
fission-0223
fission-0223
fission-0223
fission-0223
fission-0223
fission-0223
fission-0223
fission-0223
fission-0223
fission-0223
fission-0223
fission-0223
fission-0223
fission-0223
fission-0223
fission-0223
fission-0223
fission-0223
fission-0223
fission-0223
fission-0223
fission-0223
fission-0223
fission-0223
fission-0223
fission-0223
fission-0223
fission-0223
fission-0221
fission-0221
fission-0221
fission-0221
fission-0221
fission-0221
fission-0221
fission-0221
fission-0221
fission-0221
fission-0221
fission-0221
fission-0221
fission-0221
fission-0221
fission-0221
fission-0221
fission-0221
fission-0221
fission-0221
fission-0221
fission-0221
fission-0221
fission-0221
fission-0221
fission-0221
fission-0221
fission-0221
fission-0221
fission-0221
fission-0221
fission-0221
fission-0204
fission-0204
fission-0204
fission-0204
fission-0204
fission-0204
fission-0204
fission-0204
fission-0204
fission-0204
fission-0204
fission-0204
fission-0204
fission-0204
fission-0204
fission-0204
fission-0204
fission-0204
fission-0204
fission-0204
fission-0204
fission-0204
fission-0204
fission-0204
fission-0204
fission-0204
fission-0204
fission-0204
fission-0204
fission-0204
fission-0204
fission-0204
fission-0200
fission-0200
fission-0200
fission-0200
fission-0200
fission-0200
fission-0200
fission-0200
fission-0200
fission-0200
fission-0200
fission-0200
fission-0200
fission-0200
fission-0200
fission-0200
fission-0200
fission-0200
fission-0200
fission-0200
fission-0200
fission-0200
fission-0200
fission-0200
fission-0200
fission-0200
fission-0200
fission-0200
fission-0200
fission-0200
fission-0200
fission-0200
fission-0198
fission-0198
fission-0198
fission-0198
fission-0198
fission-0198
fission-0198
fission-0198
fission-0198
fission-0198
fission-0198
fission-0198
fission-0198
fission-0198
fission-0198
fission-0198
fission-0198
fission-0198
fission-0198
fission-0198
fission-0198
fission-0198
fission-0198
fission-0198
fission-0198
fission-0198
fission-0198
fission-0198
fission-0198
fission-0198
fission-0198
fission-0198
fission-0199
fission-0199
fission-0199
fission-0199
fission-0199
fission-0199
fission-0199
fission-0199
fission-0199
fission-0199
fission-0199
fission-0199
fission-0199
fission-0199
fission-0199
fission-0199
fission-0199
fission-0199
fission-0199
fission-0199
fission-0199
fission-0199
fission-0199
fission-0199
fission-0199
fission-0199
fission-0199
fission-0199
fission-0199
fission-0199
fission-0199
fission-0199
fission-0201
fission-0201
fission-0201
fission-0201
fission-0201
fission-0201
fission-0201
fission-0201
fission-0201
fission-0201
fission-0201
fission-0201
fission-0201
fission-0201
fission-0201
fission-0201
fission-0201
fission-0201
fission-0201
fission-0201
fission-0201
fission-0201
fission-0201
fission-0201
fission-0201
fission-0201
fission-0201
fission-0201
fission-0201
fission-0201
fission-0201
fission-0201
fission-0203
fission-0203
fission-0203
fission-0203
fission-0203
fission-0203
fission-0203
fission-0203
fission-0203
fission-0203
fission-0203
fission-0203
fission-0203
fission-0203
fission-0203
fission-0203
fission-0203
fission-0203
fission-0203
fission-0203
fission-0203
fission-0203
fission-0203
fission-0203
fission-0203
fission-0203
fission-0203
fission-0203
fission-0203
fission-0203
fission-0203
fission-0203

The following PBS extra args (PBS_EXTRA_ARGS) will be used: -P ldrd
The following lammps extra args (LAMMPS_EXTRA_ARGS) will be used:
LAMMPS (16 Feb 2016)
#log		log.c
units           metal
dimension       3
boundary        p p p
atom_style      atomic
shell         mkdir  cfg
shell         mkdir  dump

# ----------------------- ATOM DEFINITION & Force Field -------------
# ----------------------- ATOM DEFINITION ----------------------------
lattice         fcc 4.024845358 #origin 0.0 0.0 0.0 orient x 1 -1 0 orient y 1 1 -2 orient z 1 1 1
Lattice spacing in x,y,z = 4.02485 4.02485 4.02485
variable        Lx equal 52
variable        Ly equal 2
variable        Lz equal 208
variable        boxLZ equal 218
region          SYSTEM block -52 52 -2 2 -208 0 units lattice
region          BOX block -52 52 -2 2 -218 5 units lattice
create_box      1 BOX
Created orthogonal box = (-209.292 -8.04969 -877.416) to (209.292 8.04969 20.1242)
create_atoms    1 region SYSTEM
Created 346944 atoms

delete_atoms     porosity BOX 0.01 5434    ##random seed 482793
Deleted 3594 atoms, new total = 343350

#---------------------------------------------------------------------------------
pair_style      eam/alloy
pair_coeff  	  * * Al_wkg_MSMSE_2009.set Al

#----------------------------------------------------------------------------------
velocity       all create 300.0 29794 mom yes rot yes dist gaussian         ##random seed 4928459

fix             1 all npt temp 300 300 0.1 iso 0.0 0.0 2
run      10000
  1 neighbor list requests
  update every 1 steps, delay 10 steps, check yes
Setting up Verlet run ...
  Unit style  : metal
  Current step: 0
  Time step   : 0.001
Step Temp E_pair E_mol TotEng Press Volume
0          300    -904913.7            0    -891599.3   -742.60951    6048473.6
Loop time of 61.4402 on 512 procs for 10000 steps with 343350 atoms

unfix 1

fix            2 all nvt temp 300.0 300.0 0.1

run      10000
Setting up Verlet run ...
  Unit style  : metal
  Current step: 10000
  Time step   : 0.001
Step Temp E_pair E_mol TotEng Press
10000    300.18271   -891361.99            0   -878039.48   -16.463956
Loop time of 61.1547 on 512 procs for 10000 steps with 343350 atoms

reset_timestep 0
unfix    2
#---------------------- DEFINE Laser GERION and GROUP ----------------
region       R1  block -75  75  INF  INF  INF  5  units box
group        G1 region R1
123227 atoms in group G1
group        G2 subtract all G1
220123 atoms in group G2

#define     temperature/pressure calculation  group
variable    x1atom atom "x>=0  &&  x<4 &&  z>-40 && z<1"     ##NEW!!!!!!!!!!!!
variable    x2atom atom "x>=-209.292  &&  x<-205.292 &&  z>-40 && z<1"
variable    x3atom atom "x>=0  &&  x<4 &&  z>-20 && z<1"
variable    x4atom atom "x>=-209.292  &&  x<-205.292 &&  z>-20 && z<1"
variable    x5atom atom "x>=196  &&  x<200 &&  z>-40 && z<1"

group       x1atom variable x1atom
150 atoms in group x1atom
group       x2atom variable x2atom
167 atoms in group x2atom
group       x3atom variable x3atom
77 atoms in group x3atom
group       x4atom variable x4atom
88 atoms in group x4atom
group       x5atom variable x5atom
167 atoms in group x5atom

compute      COM1x x1atom com
compute      COM2x x2atom com
compute      COM3x x3atom com
compute      COM4x x4atom com
compute      COM5x x5atom com

compute      COMall all com

#Temperature profile
#variable      Tprofile atom 300*(1+(step/5000)*2.5*exp(z/40))
variable      Tprofile atom 300*(1+(step/5000)*2.5*exp(z/75))

# ------------------------- SETTINGS ---------------------------------
thermo          100
thermo_style    custom step lx pxx pyy pzz temp c_COM1x[1] c_COM1x[2] c_COM1x[3] c_COM2x[1] c_COM2x[2] c_COM2x[3] c_COM3x[1] c_COM3x[2] c_COM3x[3] c_COM4x[1] c_COM4x[2] c_COM4x[3]  c_COM5x[1] c_COM5x[2] c_COM5x[3] c_COMall[1] c_COMall[2] c_COMall[3]

timestep       0.002

compute dispall all displace/atom
# ---------------- Run Laser Material Interaction --------------------
#dump          1 all custom 1000 dump/z1dump.atom id type x y z c_dispall[1]  c_dispall[2]  c_dispall[3] c_dispall[4]
#dump          2 all cfg 100 cfg/*.cfg mass type xs ys zs
#dump_modify   2 element Al

#relax for 2 PS
#fix           1 all nvt temp 300.0 300.0 0.1
#run  1000
#unfix         1

fix           1  all nve
fix           3temp  G1  langevin  v_Tprofile  0  0.1  378411   #TEST ALL
run           5000
Setting up Verlet run ...
  Unit style  : metal
  Current step: 0
  Time step   : 0.002
Step Lx Pxx Pyy Pzz Temp COM1x[1] COM1x[2] COM1x[3] COM2x[1] COM2x[2] COM2x[3] COM3x[1] COM3x[2] COM3x[3] COM4x[1] COM4x[2] COM4x[3] COM5x[1] COM5x[2] COM5x[3] COMall[1 COMall[2 COMall[3
0     420.9517    54.809038    41.632258   -58.808236    300.17051     2.338287   -1.0299138   -19.412521   -207.42648  -0.90229291   -19.497813    2.2889694  -0.67282606   -8.9953588   -207.42817   -0.8559324    -9.414047    197.31733  -0.86178126   -19.513065  -0.99540499    -1.009681   -418.48085
Averages over the last 26 of 51 rows, steps 2500 to 5000:
Lx Pxx Pyy Pzz Temp COM1x[1] COM1x[2] COM1x[3] COM2x[1] COM2x[2] COM2x[3] COM3x[1] COM3x[2] COM3x[3] COM4x[1] COM4x[2] COM4x[3] COM5x[1] COM5x[2] COM5x[3] COMall[1 COMall[2 COMall[3
420.952 992.13 957.775 596.24 321.93 2.27543 -1.0329 -19.0601 -207.461 -1.05828 -19.3769 2.18785 -0.620792 -8.40986 -207.477 -1.01188 -9.25046 197.351 -0.995921 -19.4479 -0.993581 -0.984072 -418.485
Loop time of 30.1268 on 512 procs for 5000 steps with 343350 atoms

variable  com1_x equal "c_COM1x[1]"
variable  com1_y equal "c_COM1x[2]"
variable  com1_z equal "c_COM1x[3]"
variable  com2_x equal "c_COM2x[1]"
variable  com2_y equal "c_COM2x[2]"
variable  com2_z equal "c_COM2x[3]"
variable  com3_x equal "c_COM3x[1]"
variable  com3_y equal "c_COM3x[2]"
variable  com3_z equal "c_COM3x[3]"
variable  com4_x equal "c_COM4x[1]"
variable  com4_y equal "c_COM4x[2]"
variable  com4_z equal "c_COM4x[3]"
variable  com5_x equal "c_COM5x[1]"
variable  com5_y equal "c_COM5x[2]"
variable  com5_z equal "c_COM5x[3]"
variable  comall_x equal "c_COMall[1]"
variable  comall_y equal "c_COMall[2]"
variable  comall_z equal "c_COMall[3]"

#-------------------------- Wave Propagation -------------------------
unfix        3temp
run          1000000
Setting up Verlet run ...
  Unit style  : metal
  Current step: 5000
  Time step   : 0.002
Step Lx Pxx Pyy Pzz Temp COM1x[1] COM1x[2] COM1x[3] COM2x[1] COM2x[2] COM2x[3] COM3x[1] COM3x[2] COM3x[3] COM4x[1] COM4x[2] COM4x[3] COM5x[1] COM5x[2] COM5x[3] COMall[1 COMall[2 COMall[3
5000     420.9517    1331.1234     1280.459    818.24089    330.63989    2.2571625  -0.95030164   -18.785603   -207.47227   -1.0822026   -19.348285    2.1896775  -0.45009504   -8.0919724   -207.52323   -1.0340715   -9.2184928     197.3245    -1.039661   -19.378474  -0.99975205  -0.99512944   -418.48383
Averages over the last 5001 of 10001 rows, steps 505000 to 1005000:
Lx Pxx Pyy Pzz Temp COM1x[1] COM1x[2] COM1x[3] COM2x[1] COM2x[2] COM2x[3] COM3x[1] COM3x[2] COM3x[3] COM4x[1] COM4x[2] COM4x[3] COM5x[1] COM5x[2] COM5x[3] COMall[1 COMall[2 COMall[3
420.952 892.616 876.386 -6.50324 332.385 -11.0361 -1.63288 -17.0344 -220.783 -1.59427 -17.0388 -11.0598 -1.2467 -6.69 -220.78 -1.55115 -6.92269 183.952 -1.52407 -17.095 -14.3899 -1.55056 -416.729
Loop time of 5855.79 on 512 procs for 1000000 steps with 343350 atoms
