fission-0381
fission-0381
fission-0381
fission-0381
fission-0381
fission-0381
fission-0381
fission-0381
fission-0381
fission-0381
fission-0381
fission-0381
fission-0381
fission-0381
fission-0381
fission-0381
fission-0381
fission-0381
fission-0381
fission-0381
fission-0381
fission-0381
fission-0381
fission-0381
fission-0381
fission-0381
fission-0381
fission-0381
fission-0381
fission-0381
fission-0381
fission-0381
fission-0191
fission-0191
fission-0191
fission-0191
fission-0191
fission-0191
fission-0191
fission-0191
fission-0191
fission-0191
fission-0191
fission-0191
fission-0191
fission-0191
fission-0191
fission-0191
fission-0191
fission-0191
fission-0191
fission-0191
fission-0191
fission-0191
fission-0191
fission-0191
fission-0191
fission-0191
fission-0191
fission-0191
fission-0191
fission-0191
fission-0191
fission-0191
fission-0197
fission-0197
fission-0197
fission-0197
fission-0197
fission-0197
fission-0197
fission-0197
fission-0197
fission-0197
fission-0197
fission-0197
fission-0197
fission-0197
fission-0197
fission-0197
fission-0197
fission-0197
fission-0197
fission-0197
fission-0197
fission-0197
fission-0197
fission-0197
fission-0197
fission-0197
fission-0197
fission-0197
fission-0197
fission-0197
fission-0197
fission-0197
fission-0175
fission-0175
fission-0175
fission-0175
fission-0175
fission-0175
fission-0175
fission-0175
fission-0175
fission-0175
fission-0175
fission-0175
fission-0175
fission-0175
fission-0175
fission-0175
fission-0175
fission-0175
fission-0175
fission-0175
fission-0175
fission-0175
fission-0175
fission-0175
fission-0175
fission-0175
fission-0175
fission-0175
fission-0175
fission-0175
fission-0175
fission-0175
fission-0242
fission-0242
fission-0242
fission-0242
fission-0242
fission-0242
fission-0242
fission-0242
fission-0242
fission-0242
fission-0242
fission-0242
fission-0242
fission-0242
fission-0242
fission-0242
fission-0242
fission-0242
fission-0242
fission-0242
fission-0242
fission-0242
fission-0242
fission-0242
fission-0242
fission-0242
fission-0242
fission-0242
fission-0242
fission-0242
fission-0242
fission-0242
fission-0216
fission-0216
fission-0216
fission-0216
fission-0216
fission-0216
fission-0216
fission-0216
fission-0216
fission-0216
fission-0216
fission-0216
fission-0216
fission-0216
fission-0216
fission-0216
fission-0216
fission-0216
fission-0216
fission-0216
fission-0216
fission-0216
fission-0216
fission-0216
fission-0216
fission-0216
fission-0216
fission-0216
fission-0216
fission-0216
fission-0216
fission-0216
fission-0077
fission-0077
fission-0077
fission-0077
fission-0077
fission-0077
fission-0077
fission-0077
fission-0077
fission-0077
fission-0077
fission-0077
fission-0077
fission-0077
fission-0077
fission-0077
fission-0077
fission-0077
fission-0077
fission-0077
fission-0077
fission-0077
fission-0077
fission-0077
fission-0077
fission-0077
fission-0077
fission-0077
fission-0077
fission-0077
fission-0077
fission-0077
fission-0255
fission-0255
fission-0255
fission-0255
fission-0255
fission-0255
fission-0255
fission-0255
fission-0255
fission-0255
fission-0255
fission-0255
fission-0255
fission-0255
fission-0255
fission-0255
fission-0255
fission-0255
fission-0255
fission-0255
fission-0255
fission-0255
fission-0255
fission-0255
fission-0255
fission-0255
fission-0255
fission-0255
fission-0255
fission-0255
fission-0255
fission-0255
fission-0282
fission-0282
fission-0282
fission-0282
fission-0282
fission-0282
fission-0282
fission-0282
fission-0282
fission-0282
fission-0282
fission-0282
fission-0282
fission-0282
fission-0282
fission-0282
fission-0282
fission-0282
fission-0282
fission-0282
fission-0282
fission-0282
fission-0282
fission-0282
fission-0282
fission-0282
fission-0282
fission-0282
fission-0282
fission-0282
fission-0282
fission-0282
fission-0264
fission-0264
fission-0264
fission-0264
fission-0264
fission-0264
fission-0264
fission-0264
fission-0264
fission-0264
fission-0264
fission-0264
fission-0264
fission-0264
fission-0264
fission-0264
fission-0264
fission-0264
fission-0264
fission-0264
fission-0264
fission-0264
fission-0264
fission-0264
fission-0264
fission-0264
fission-0264
fission-0264
fission-0264
fission-0264
fission-0264
fission-0264
fission-0270
fission-0270
fission-0270
fission-0270
fission-0270
fission-0270
fission-0270
fission-0270
fission-0270
fission-0270
fission-0270
fission-0270
fission-0270
fission-0270
fission-0270
fission-0270
fission-0270
fission-0270
fission-0270
fission-0270
fission-0270
fission-0270
fission-0270
fission-0270
fission-0270
fission-0270
fission-0270
fission-0270
fission-0270
fission-0270
fission-0270
fission-0270
fission-0389
fission-0389
fission-0389
fission-0389
fission-0389
fission-0389
fission-0389
fission-0389
fission-0389
fission-0389
fission-0389
fission-0389
fission-0389
fission-0389
fission-0389
fission-0389
fission-0389
fission-0389
fission-0389
fission-0389
fission-0389
fission-0389
fission-0389
fission-0389
fission-0389
fission-0389
fission-0389
fission-0389
fission-0389
fission-0389
fission-0389
fission-0389
fission-0209
fission-0209
fission-0209
fission-0209
fission-0209
fission-0209
fission-0209
fission-0209
fission-0209
fission-0209
fission-0209
fission-0209
fission-0209
fission-0209
fission-0209
fission-0209
fission-0209
fission-0209
fission-0209
fission-0209
fission-0209
fission-0209
fission-0209
fission-0209
fission-0209
fission-0209
fission-0209
fission-0209
fission-0209
fission-0209
fission-0209
fission-0209
fission-0339
fission-0339
fission-0339
fission-0339
fission-0339
fission-0339
fission-0339
fission-0339
fission-0339
fission-0339
fission-0339
fission-0339
fission-0339
fission-0339
fission-0339
fission-0339
fission-0339
fission-0339
fission-0339
fission-0339
fission-0339
fission-0339
fission-0339
fission-0339
fission-0339
fission-0339
fission-0339
fission-0339
fission-0339
fission-0339
fission-0339
fission-0339
fission-0218
fission-0218
fission-0218
fission-0218
fission-0218
fission-0218
fission-0218
fission-0218
fission-0218
fission-0218
fission-0218
fission-0218
fission-0218
fission-0218
fission-0218
fission-0218
fission-0218
fission-0218
fission-0218
fission-0218
fission-0218
fission-0218
fission-0218
fission-0218
fission-0218
fission-0218
fission-0218
fission-0218
fission-0218
fission-0218
fission-0218
fission-0218
fission-0222
fission-0222
fission-0222
fission-0222
fission-0222
fission-0222
fission-0222
fission-0222
fission-0222
fission-0222
fission-0222
fission-0222
fission-0222
fission-0222
fission-0222
fission-0222
fission-0222
fission-0222
fission-0222
fission-0222
fission-0222
fission-0222
fission-0222
fission-0222
fission-0222
fission-0222
fission-0222
fission-0222
fission-0222
fission-0222
fission-0222
fission-0222

The following PBS extra args (PBS_EXTRA_ARGS) will be used: -P ldrd
The following lammps extra args (LAMMPS_EXTRA_ARGS) will be used:
LAMMPS (16 Feb 2016)
#log		log.c
units           metal
dimension       3
boundary        p p p
atom_style      atomic
shell         mkdir  cfg
shell         mkdir  dump

# ----------------------- ATOM DEFINITION & Force Field -------------
# ----------------------- ATOM DEFINITION ----------------------------
lattice         fcc 4.024845358 #origin 0.0 0.0 0.0 orient x 1 -1 0 orient y 1 1 -2 orient z 1 1 1
Lattice spacing in x,y,z = 4.02485 4.02485 4.02485
variable        Lx equal 52
variable        Ly equal 2
variable        Lz equal 208
variable        boxLZ equal 218
region          SYSTEM block -52 52 -2 2 -208 0 units lattice
region          BOX block -52 52 -2 2 -218 5 units lattice
create_box      1 BOX
Created orthogonal box = (-209.292 -8.04969 -877.416) to (209.292 8.04969 20.1242)
create_atoms    1 region SYSTEM
Created 346944 atoms

delete_atoms     porosity BOX 0.001 8498    ##random seed <RAND1>
Deleted 334 atoms, new total = 346610

#---------------------------------------------------------------------------------
pair_style      eam/alloy
pair_coeff  	  * * Al_wkg_MSMSE_2009.set Al

#----------------------------------------------------------------------------------
velocity       all create 300.0 22984 mom yes rot yes dist gaussian         ##random seed <RAND2>

fix             1 all npt temp 300 300 0.1 iso 0.0 0.0 2
run      10000
  1 neighbor list requests
  update every 1 steps, delay 10 steps, check yes
Setting up Verlet run ...
  Unit style  : metal
  Current step: 0
  Time step   : 0.001
Step Temp E_pair E_mol TotEng Press Volume
0          300    -916095.5            0   -902654.68    1902.1021    6048473.6
Loop time of 62.4262 on 512 procs for 10000 steps with 346610 atoms

unfix 1

fix            2 all nvt temp 300.0 300.0 0.1

run      10000
Setting up Verlet run ...
  Unit style  : metal
  Current step: 10000
  Time step   : 0.001
Step Temp E_pair E_mol TotEng Press
10000    300.04438   -902069.81            0      -888627    12.647044
Loop time of 60.5109 on 512 procs for 10000 steps with 346610 atoms

reset_timestep 0
unfix    2
#---------------------- DEFINE Laser GERION and GROUP ----------------
region       R1  block -75  75  INF  INF  INF  5  units box
group        G1 region R1
123590 atoms in group G1
group        G2 subtract all G1
223020 atoms in group G2

#define     temperature/pressure calculation  group
variable    x1atom atom "x>=0  &&  x<4 &&  z>-40 && z<1"     ##NEW!!!!!!!!!!!!
variable    x2atom atom "x>=-209.292  &&  x<-205.292 &&  z>-40 && z<1"
variable    x3atom atom "x>=0  &&  x<4 &&  z>-20 && z<1"
variable    x4atom atom "x>=-209.292  &&  x<-205.292 &&  z>-20 && z<1"
variable    x5atom atom "x>=196  &&  x<200 &&  z>-40 && z<1"

group       x1atom variable x1atom
155 atoms in group x1atom
group       x2atom variable x2atom
160 atoms in group x2atom
group       x3atom variable x3atom
76 atoms in group x3atom
group       x4atom variable x4atom
80 atoms in group x4atom
group       x5atom variable x5atom
159 atoms in group x5atom

compute      COM1x x1atom com
compute      COM2x x2atom com
compute      COM3x x3atom com
compute      COM4x x4atom com
compute      COM5x x5atom com

compute      COMall all com

#Temperature profile
#variable      Tprofile atom 300*(1+(step/5000)*2.5*exp(z/40))
variable      Tprofile atom 300*(1+(step/5000)*2.5*exp(z/75))

# ------------------------- SETTINGS ---------------------------------
thermo          100
thermo_style    custom step lx pxx pyy pzz temp c_COM1x[1] c_COM1x[2] c_COM1x[3] c_COM2x[1] c_COM2x[2] c_COM2x[3] c_COM3x[1] c_COM3x[2] c_COM3x[3] c_COM4x[1] c_COM4x[2] c_COM4x[3]  c_COM5x[1] c_COM5x[2] c_COM5x[3] c_COMall[1] c_COMall[2] c_COMall[3]

timestep       0.002

compute dispall all displace/atom
# ---------------- Run Laser Material Interaction --------------------
#dump          1 all custom 1000 dump/z1dump.atom id type x y z c_dispall[1]  c_dispall[2]  c_dispall[3] c_dispall[4]
#dump          2 all cfg 100 cfg/*.cfg mass type xs ys zs
#dump_modify   2 element Al

#relax for 2 PS
#fix           1 all nvt temp 300.0 300.0 0.1
#run  1000
#unfix         1

fix           1  all nve
fix           3temp  G1  langevin  v_Tprofile  0  0.1  378411   #TEST ALL
run           5000
Setting up Verlet run ...
  Unit style  : metal
  Current step: 0
  Time step   : 0.002
Step Lx Pxx Pyy Pzz Temp COM1x[1] COM1x[2] COM1x[3] COM2x[1] COM2x[2] COM2x[3] COM3x[1] COM3x[2] COM3x[3] COM4x[1] COM4x[2] COM4x[3] COM5x[1] COM5x[2] COM5x[3] COMall[1 COMall[2 COMall[3
0    421.52111    210.34053    199.77122   -104.87768    299.68906    2.6967752  -0.75623347   -20.273002    -207.8467  -0.83300943    -19.93575    2.5584793  -0.56929798   -10.037992    -207.8645  -0.77120355   -9.7960846    197.49525  -0.84603286   -19.785899   -1.0233868   -1.0137338   -418.50194
Averages over the last 26 of 51 rows, steps 2500 to 5000:
Lx Pxx Pyy Pzz Temp COM1x[1] COM1x[2] COM1x[3] COM2x[1] COM2x[2] COM2x[3] COM3x[1] COM3x[2] COM3x[3] COM4x[1] COM4x[2] COM4x[3] COM5x[1] COM5x[2] COM5x[3] COMall[1 COMall[2 COMall[3
421.521 1237.73 1193.02 717.803 322.104 2.71201 -0.692251 -19.8973 -207.885 -1.00138 -19.7853 2.53007 -0.45581 -9.47259 -207.884 -0.998109 -9.61498 197.502 -0.975358 -19.7809 -1.02142 -1.02728 -418.513
Loop time of 31.4209 on 512 procs for 5000 steps with 346610 atoms

variable  com1_x equal "c_COM1x[1]"
variable  com1_y equal "c_COM1x[2]"
variable  com1_z equal "c_COM1x[3]"
variable  com2_x equal "c_COM2x[1]"
variable  com2_y equal "c_COM2x[2]"
variable  com2_z equal "c_COM2x[3]"
variable  com3_x equal "c_COM3x[1]"
variable  com3_y equal "c_COM3x[2]"
variable  com3_z equal "c_COM3x[3]"
variable  com4_x equal "c_COM4x[1]"
variable  com4_y equal "c_COM4x[2]"
variable  com4_z equal "c_COM4x[3]"
variable  com5_x equal "c_COM5x[1]"
variable  com5_y equal "c_COM5x[2]"
variable  com5_z equal "c_COM5x[3]"
variable  comall_x equal "c_COMall[1]"
variable  comall_y equal "c_COMall[2]"
variable  comall_z equal "c_COMall[3]"

#-------------------------- Wave Propagation -------------------------
unfix        3temp
run          1000000
Setting up Verlet run ...
  Unit style  : metal
  Current step: 5000
  Time step   : 0.002
Step Lx Pxx Pyy Pzz Temp COM1x[1] COM1x[2] COM1x[3] COM2x[1] COM2x[2] COM2x[3] COM3x[1] COM3x[2] COM3x[3] COM4x[1] COM4x[2] COM4x[3] COM5x[1] COM5x[2] COM5x[3] COMall[1 COMall[2 COMall[3
5000    421.52111    1548.4306    1462.5398    828.73288    331.06542    2.6632077  -0.60761894   -19.808686   -207.85716   -1.0758647   -19.685376    2.4538142  -0.41684543   -9.3073593   -207.85855    -1.030178   -9.5370044     197.5604   -1.0375533   -19.692631   -1.0244538   -1.0230409   -418.51909
Averages over the last 5001 of 10001 rows, steps 505000 to 1005000:
Lx Pxx Pyy Pzz Temp COM1x[1] COM1x[2] COM1x[3] COM2x[1] COM2x[2] COM2x[3] COM3x[1] COM3x[2] COM3x[3] COM4x[1] COM4x[2] COM4x[3] COM5x[1] COM5x[2] COM5x[3] COMall[1 COMall[2 COMall[3
421.521 1070.88 1048.77 -7.07346 331.115 0.774874 5.95309 -32.8464 -209.776 5.74497 -32.5364 0.570466 6.15582 -22.5088 -209.777 5.74473 -22.3727 195.538 5.76403 -32.5427 -3.07613 5.7456 -431.9
Loop time of 5829.41 on 512 procs for 1000000 steps with 346610 atoms
