fission-0100
fission-0100
fission-0100
fission-0100
fission-0100
fission-0100
fission-0100
fission-0100
fission-0100
fission-0100
fission-0100
fission-0100
fission-0100
fission-0100
fission-0100
fission-0100
fission-0100
fission-0100
fission-0100
fission-0100
fission-0100
fission-0100
fission-0100
fission-0100
fission-0100
fission-0100
fission-0100
fission-0100
fission-0100
fission-0100
fission-0100
fission-0100
fission-0086
fission-0086
fission-0086
fission-0086
fission-0086
fission-0086
fission-0086
fission-0086
fission-0086
fission-0086
fission-0086
fission-0086
fission-0086
fission-0086
fission-0086
fission-0086
fission-0086
fission-0086
fission-0086
fission-0086
fission-0086
fission-0086
fission-0086
fission-0086
fission-0086
fission-0086
fission-0086
fission-0086
fission-0086
fission-0086
fission-0086
fission-0086
fission-0112
fission-0112
fission-0112
fission-0112
fission-0112
fission-0112
fission-0112
fission-0112
fission-0112
fission-0112
fission-0112
fission-0112
fission-0112
fission-0112
fission-0112
fission-0112
fission-0112
fission-0112
fission-0112
fission-0112
fission-0112
fission-0112
fission-0112
fission-0112
fission-0112
fission-0112
fission-0112
fission-0112
fission-0112
fission-0112
fission-0112
fission-0112
fission-0088
fission-0088
fission-0088
fission-0088
fission-0088
fission-0088
fission-0088
fission-0088
fission-0088
fission-0088
fission-0088
fission-0088
fission-0088
fission-0088
fission-0088
fission-0088
fission-0088
fission-0088
fission-0088
fission-0088
fission-0088
fission-0088
fission-0088
fission-0088
fission-0088
fission-0088
fission-0088
fission-0088
fission-0088
fission-0088
fission-0088
fission-0088
fission-0091
fission-0091
fission-0091
fission-0091
fission-0091
fission-0091
fission-0091
fission-0091
fission-0091
fission-0091
fission-0091
fission-0091
fission-0091
fission-0091
fission-0091
fission-0091
fission-0091
fission-0091
fission-0091
fission-0091
fission-0091
fission-0091
fission-0091
fission-0091
fission-0091
fission-0091
fission-0091
fission-0091
fission-0091
fission-0091
fission-0091
fission-0091
fission-0087
fission-0087
fission-0087
fission-0087
fission-0087
fission-0087
fission-0087
fission-0087
fission-0087
fission-0087
fission-0087
fission-0087
fission-0087
fission-0087
fission-0087
fission-0087
fission-0087
fission-0087
fission-0087
fission-0087
fission-0087
fission-0087
fission-0087
fission-0087
fission-0087
fission-0087
fission-0087
fission-0087
fission-0087
fission-0087
fission-0087
fission-0087
fission-0093
fission-0093
fission-0093
fission-0093
fission-0093
fission-0093
fission-0093
fission-0093
fission-0093
fission-0093
fission-0093
fission-0093
fission-0093
fission-0093
fission-0093
fission-0093
fission-0093
fission-0093
fission-0093
fission-0093
fission-0093
fission-0093
fission-0093
fission-0093
fission-0093
fission-0093
fission-0093
fission-0093
fission-0093
fission-0093
fission-0093
fission-0093
fission-0099
fission-0099
fission-0099
fission-0099
fission-0099
fission-0099
fission-0099
fission-0099
fission-0099
fission-0099
fission-0099
fission-0099
fission-0099
fission-0099
fission-0099
fission-0099
fission-0099
fission-0099
fission-0099
fission-0099
fission-0099
fission-0099
fission-0099
fission-0099
fission-0099
fission-0099
fission-0099
fission-0099
fission-0099
fission-0099
fission-0099
fission-0099
fission-0095
fission-0095
fission-0095
fission-0095
fission-0095
fission-0095
fission-0095
fission-0095
fission-0095
fission-0095
fission-0095
fission-0095
fission-0095
fission-0095
fission-0095
fission-0095
fission-0095
fission-0095
fission-0095
fission-0095
fission-0095
fission-0095
fission-0095
fission-0095
fission-0095
fission-0095
fission-0095
fission-0095
fission-0095
fission-0095
fission-0095
fission-0095
fission-0096
fission-0096
fission-0096
fission-0096
fission-0096
fission-0096
fission-0096
fission-0096
fission-0096
fission-0096
fission-0096
fission-0096
fission-0096
fission-0096
fission-0096
fission-0096
fission-0096
fission-0096
fission-0096
fission-0096
fission-0096
fission-0096
fission-0096
fission-0096
fission-0096
fission-0096
fission-0096
fission-0096
fission-0096
fission-0096
fission-0096
fission-0096
fission-0089
fission-0089
fission-0089
fission-0089
fission-0089
fission-0089
fission-0089
fission-0089
fission-0089
fission-0089
fission-0089
fission-0089
fission-0089
fission-0089
fission-0089
fission-0089
fission-0089
fission-0089
fission-0089
fission-0089
fission-0089
fission-0089
fission-0089
fission-0089
fission-0089
fission-0089
fission-0089
fission-0089
fission-0089
fission-0089
fission-0089
fission-0089
fission-0098
fission-0098
fission-0098
fission-0098
fission-0098
fission-0098
fission-0098
fission-0098
fission-0098
fission-0098
fission-0098
fission-0098
fission-0098
fission-0098
fission-0098
fission-0098
fission-0098
fission-0098
fission-0098
fission-0098
fission-0098
fission-0098
fission-0098
fission-0098
fission-0098
fission-0098
fission-0098
fission-0098
fission-0098
fission-0098
fission-0098
fission-0098
fission-0092
fission-0092
fission-0092
fission-0092
fission-0092
fission-0092
fission-0092
fission-0092
fission-0092
fission-0092
fission-0092
fission-0092
fission-0092
fission-0092
fission-0092
fission-0092
fission-0092
fission-0092
fission-0092
fission-0092
fission-0092
fission-0092
fission-0092
fission-0092
fission-0092
fission-0092
fission-0092
fission-0092
fission-0092
fission-0092
fission-0092
fission-0092
fission-0101
fission-0101
fission-0101
fission-0101
fission-0101
fission-0101
fission-0101
fission-0101
fission-0101
fission-0101
fission-0101
fission-0101
fission-0101
fission-0101
fission-0101
fission-0101
fission-0101
fission-0101
fission-0101
fission-0101
fission-0101
fission-0101
fission-0101
fission-0101
fission-0101
fission-0101
fission-0101
fission-0101
fission-0101
fission-0101
fission-0101
fission-0101
fission-0102
fission-0102
fission-0102
fission-0102
fission-0102
fission-0102
fission-0102
fission-0102
fission-0102
fission-0102
fission-0102
fission-0102
fission-0102
fission-0102
fission-0102
fission-0102
fission-0102
fission-0102
fission-0102
fission-0102
fission-0102
fission-0102
fission-0102
fission-0102
fission-0102
fission-0102
fission-0102
fission-0102
fission-0102
fission-0102
fission-0102
fission-0102
fission-0104
fission-0104
fission-0104
fission-0104
fission-0104
fission-0104
fission-0104
fission-0104
fission-0104
fission-0104
fission-0104
fission-0104
fission-0104
fission-0104
fission-0104
fission-0104
fission-0104
fission-0104
fission-0104
fission-0104
fission-0104
fission-0104
fission-0104
fission-0104
fission-0104
fission-0104
fission-0104
fission-0104
fission-0104
fission-0104
fission-0104
fission-0104

The following PBS extra args (PBS_EXTRA_ARGS) will be used: -P ldrd
The following lammps extra args (LAMMPS_EXTRA_ARGS) will be used:
LAMMPS (16 Feb 2016)
#log		log.c
units           metal
dimension       3
boundary        p p p
atom_style      atomic
shell         mkdir  cfg
shell         mkdir  dump

# ----------------------- ATOM DEFINITION & Force Field -------------
# ----------------------- ATOM DEFINITION ----------------------------
lattice         fcc 4.024845358 #origin 0.0 0.0 0.0 orient x 1 -1 0 orient y 1 1 -2 orient z 1 1 1
Lattice spacing in x,y,z = 4.02485 4.02485 4.02485
variable        Lx equal 52
variable        Ly equal 2
variable        Lz equal 208
variable        boxLZ equal 218
region          SYSTEM block -52 52 -2 2 -208 0 units lattice
region          BOX block -52 52 -2 2 -218 5 units lattice
create_box      1 BOX
Created orthogonal box = (-209.292 -8.04969 -877.416) to (209.292 8.04969 20.1242)
create_atoms    1 region SYSTEM
Created 346944 atoms

delete_atoms     porosity BOX 0.001 20383    ##random seed <RAND1>
Deleted 360 atoms, new total = 346584

#---------------------------------------------------------------------------------
pair_style      eam/alloy
pair_coeff  	  * * Al_wkg_MSMSE_2009.set Al

#----------------------------------------------------------------------------------
velocity       all create 300.0 13309 mom yes rot yes dist gaussian         ##random seed <RAND2>

fix             1 all npt temp 300 300 0.1 iso 0.0 0.0 2
run      10000
  1 neighbor list requests
  update every 1 steps, delay 10 steps, check yes
Setting up Verlet run ...
  Unit style  : metal
  Current step: 0
  Time step   : 0.001
Step Temp E_pair E_mol TotEng Press Volume
0          300   -916007.67            0   -902567.86    1883.5846    6048473.6
Loop time of 61.0757 on 512 procs for 10000 steps with 346584 atoms

unfix 1

fix            2 all nvt temp 300.0 300.0 0.1

run      10000
Setting up Verlet run ...
  Unit style  : metal
  Current step: 10000
  Time step   : 0.001
Step Temp E_pair E_mol TotEng Press
10000    299.46256   -901964.54            0   -888548.81    51.677387
Loop time of 58.8494 on 512 procs for 10000 steps with 346584 atoms

reset_timestep 0
unfix    2
#---------------------- DEFINE Laser GERION and GROUP ----------------
region       R1  block -75  75  INF  INF  INF  5  units box
group        G1 region R1
123377 atoms in group G1
group        G2 subtract all G1
223207 atoms in group G2

#define     temperature/pressure calculation  group
variable    x1atom atom "x>=0  &&  x<4 &&  z>-40 && z<1"     ##NEW!!!!!!!!!!!!
variable    x2atom atom "x>=-209.292  &&  x<-205.292 &&  z>-40 && z<1"
variable    x3atom atom "x>=0  &&  x<4 &&  z>-20 && z<1"
variable    x4atom atom "x>=-209.292  &&  x<-205.292 &&  z>-20 && z<1"
variable    x5atom atom "x>=196  &&  x<200 &&  z>-40 && z<1"

group       x1atom variable x1atom
142 atoms in group x1atom
group       x2atom variable x2atom
160 atoms in group x2atom
group       x3atom variable x3atom
69 atoms in group x3atom
group       x4atom variable x4atom
80 atoms in group x4atom
group       x5atom variable x5atom
160 atoms in group x5atom

compute      COM1x x1atom com
compute      COM2x x2atom com
compute      COM3x x3atom com
compute      COM4x x4atom com
compute      COM5x x5atom com

compute      COMall all com

#Temperature profile
#variable      Tprofile atom 300*(1+(step/5000)*2.5*exp(z/40))
variable      Tprofile atom 300*(1+(step/5000)*2.5*exp(z/75))

# ------------------------- SETTINGS ---------------------------------
thermo          100
thermo_style    custom step lx pxx pyy pzz temp c_COM1x[1] c_COM1x[2] c_COM1x[3] c_COM2x[1] c_COM2x[2] c_COM2x[3] c_COM3x[1] c_COM3x[2] c_COM3x[3] c_COM4x[1] c_COM4x[2] c_COM4x[3]  c_COM5x[1] c_COM5x[2] c_COM5x[3] c_COMall[1] c_COMall[2] c_COMall[3]

timestep       0.002

compute dispall all displace/atom
# ---------------- Run Laser Material Interaction --------------------
#dump          1 all custom 1000 dump/z1dump.atom id type x y z c_dispall[1]  c_dispall[2]  c_dispall[3] c_dispall[4]
#dump          2 all cfg 100 cfg/*.cfg mass type xs ys zs
#dump_modify   2 element Al

#relax for 2 PS
#fix           1 all nvt temp 300.0 300.0 0.1
#run  1000
#unfix         1

fix           1  all nve
fix           3temp  G1  langevin  v_Tprofile  0  0.1  378411   #TEST ALL
run           5000
Setting up Verlet run ...
  Unit style  : metal
  Current step: 0
  Time step   : 0.002
Step Lx Pxx Pyy Pzz Temp COM1x[1] COM1x[2] COM1x[3] COM2x[1] COM2x[2] COM2x[3] COM3x[1] COM3x[2] COM3x[3] COM4x[1] COM4x[2] COM4x[3] COM5x[1] COM5x[2] COM5x[3] COMall[1 COMall[2 COMall[3
0    421.53217    155.37614    88.643968   -211.05479    300.01443    2.5358497   -1.3419025   -20.112801   -207.68048   -1.0647804   -19.811817    2.6238638   -1.0797368   -9.6812193   -207.63505   -1.0858027   -9.6359701    197.62202   -1.0570697   -19.886667  -0.99853394   -1.0134096   -418.49722
Averages over the last 26 of 51 rows, steps 2500 to 5000:
Lx Pxx Pyy Pzz Temp COM1x[1] COM1x[2] COM1x[3] COM2x[1] COM2x[2] COM2x[3] COM3x[1] COM3x[2] COM3x[3] COM4x[1] COM4x[2] COM4x[3] COM5x[1] COM5x[2] COM5x[3] COMall[1 COMall[2 COMall[3
421.532 1169.55 1131.57 655.049 322.359 2.50039 -1.36611 -19.8241 -207.777 -1.06113 -19.7206 2.5949 -1.06558 -9.19585 -207.765 -1.06352 -9.55167 197.616 -1.05303 -19.7091 -0.994685 -1.02061 -418.461
Loop time of 31.6279 on 512 procs for 5000 steps with 346584 atoms

variable  com1_x equal "c_COM1x[1]"
variable  com1_y equal "c_COM1x[2]"
variable  com1_z equal "c_COM1x[3]"
variable  com2_x equal "c_COM2x[1]"
variable  com2_y equal "c_COM2x[2]"
variable  com2_z equal "c_COM2x[3]"
variable  com3_x equal "c_COM3x[1]"
variable  com3_y equal "c_COM3x[2]"
variable  com3_z equal "c_COM3x[3]"
variable  com4_x equal "c_COM4x[1]"
variable  com4_y equal "c_COM4x[2]"
variable  com4_z equal "c_COM4x[3]"
variable  com5_x equal "c_COM5x[1]"
variable  com5_y equal "c_COM5x[2]"
variable  com5_z equal "c_COM5x[3]"
variable  comall_x equal "c_COMall[1]"
variable  comall_y equal "c_COMall[2]"
variable  comall_z equal "c_COMall[3]"

#-------------------------- Wave Propagation -------------------------
unfix        3temp
run          1000000
Setting up Verlet run ...
  Unit style  : metal
  Current step: 5000
  Time step   : 0.002
Step Lx Pxx Pyy Pzz Temp COM1x[1] COM1x[2] COM1x[3] COM2x[1] COM2x[2] COM2x[3] COM3x[1] COM3x[2] COM3x[3] COM4x[1] COM4x[2] COM4x[3] COM5x[1] COM5x[2] COM5x[3] COMall[1 COMall[2 COMall[3
5000    421.53217    1464.1339    1417.5638    808.28113    330.33258    2.5411576    -1.225381   -19.691288   -207.77381  -0.98523301    -19.60171    2.6361522  -0.91758534   -8.9274258   -207.73789   -1.0161045   -9.4600349    197.65091   -1.0249645   -19.673075  -0.99582542   -1.0139096   -418.46898
Averages over the last 5001 of 10001 rows, steps 505000 to 1005000:
Lx Pxx Pyy Pzz Temp COM1x[1] COM1x[2] COM1x[3] COM2x[1] COM2x[2] COM2x[3] COM3x[1] COM3x[2] COM3x[3] COM4x[1] COM4x[2] COM4x[3] COM5x[1] COM5x[2] COM5x[3] COMall[1 COMall[2 COMall[3
421.532 1030.2 1008.19 -6.44068 330.929 -13.3382 4.26482 -44.3408 -223.706 4.56538 -43.9552 -13.2345 4.55007 -33.8642 -223.7 4.5652 -33.795 181.615 4.56523 -43.952 -16.9876 4.56399 -443.297
Loop time of 5853.85 on 512 procs for 1000000 steps with 346584 atoms
