fission-0183
fission-0183
fission-0183
fission-0183
fission-0183
fission-0183
fission-0183
fission-0183
fission-0183
fission-0183
fission-0183
fission-0183
fission-0183
fission-0183
fission-0183
fission-0183
fission-0183
fission-0183
fission-0183
fission-0183
fission-0183
fission-0183
fission-0183
fission-0183
fission-0183
fission-0183
fission-0183
fission-0183
fission-0183
fission-0183
fission-0183
fission-0183
fission-0179
fission-0179
fission-0179
fission-0179
fission-0179
fission-0179
fission-0179
fission-0179
fission-0179
fission-0179
fission-0179
fission-0179
fission-0179
fission-0179
fission-0179
fission-0179
fission-0179
fission-0179
fission-0179
fission-0179
fission-0179
fission-0179
fission-0179
fission-0179
fission-0179
fission-0179
fission-0179
fission-0179
fission-0179
fission-0179
fission-0179
fission-0179
fission-0188
fission-0188
fission-0188
fission-0188
fission-0188
fission-0188
fission-0188
fission-0188
fission-0188
fission-0188
fission-0188
fission-0188
fission-0188
fission-0188
fission-0188
fission-0188
fission-0188
fission-0188
fission-0188
fission-0188
fission-0188
fission-0188
fission-0188
fission-0188
fission-0188
fission-0188
fission-0188
fission-0188
fission-0188
fission-0188
fission-0188
fission-0188
fission-0195
fission-0195
fission-0195
fission-0195
fission-0195
fission-0195
fission-0195
fission-0195
fission-0195
fission-0195
fission-0195
fission-0195
fission-0195
fission-0195
fission-0195
fission-0195
fission-0195
fission-0195
fission-0195
fission-0195
fission-0195
fission-0195
fission-0195
fission-0195
fission-0195
fission-0195
fission-0195
fission-0195
fission-0195
fission-0195
fission-0195
fission-0195
fission-0172
fission-0172
fission-0172
fission-0172
fission-0172
fission-0172
fission-0172
fission-0172
fission-0172
fission-0172
fission-0172
fission-0172
fission-0172
fission-0172
fission-0172
fission-0172
fission-0172
fission-0172
fission-0172
fission-0172
fission-0172
fission-0172
fission-0172
fission-0172
fission-0172
fission-0172
fission-0172
fission-0172
fission-0172
fission-0172
fission-0172
fission-0172
fission-0190
fission-0190
fission-0190
fission-0190
fission-0190
fission-0190
fission-0190
fission-0190
fission-0190
fission-0190
fission-0190
fission-0190
fission-0190
fission-0190
fission-0190
fission-0190
fission-0190
fission-0190
fission-0190
fission-0190
fission-0190
fission-0190
fission-0190
fission-0190
fission-0190
fission-0190
fission-0190
fission-0190
fission-0190
fission-0190
fission-0190
fission-0190
fission-0173
fission-0173
fission-0173
fission-0173
fission-0173
fission-0173
fission-0173
fission-0173
fission-0173
fission-0173
fission-0173
fission-0173
fission-0173
fission-0173
fission-0173
fission-0173
fission-0173
fission-0173
fission-0173
fission-0173
fission-0173
fission-0173
fission-0173
fission-0173
fission-0173
fission-0173
fission-0173
fission-0173
fission-0173
fission-0173
fission-0173
fission-0173
fission-0171
fission-0171
fission-0171
fission-0171
fission-0171
fission-0171
fission-0171
fission-0171
fission-0171
fission-0171
fission-0171
fission-0171
fission-0171
fission-0171
fission-0171
fission-0171
fission-0171
fission-0171
fission-0171
fission-0171
fission-0171
fission-0171
fission-0171
fission-0171
fission-0171
fission-0171
fission-0171
fission-0171
fission-0171
fission-0171
fission-0171
fission-0171
fission-0180
fission-0180
fission-0180
fission-0180
fission-0180
fission-0180
fission-0180
fission-0180
fission-0180
fission-0180
fission-0180
fission-0180
fission-0180
fission-0180
fission-0180
fission-0180
fission-0180
fission-0180
fission-0180
fission-0180
fission-0180
fission-0180
fission-0180
fission-0180
fission-0180
fission-0180
fission-0180
fission-0180
fission-0180
fission-0180
fission-0180
fission-0180
fission-0181
fission-0181
fission-0181
fission-0181
fission-0181
fission-0181
fission-0181
fission-0181
fission-0181
fission-0181
fission-0181
fission-0181
fission-0181
fission-0181
fission-0181
fission-0181
fission-0181
fission-0181
fission-0181
fission-0181
fission-0181
fission-0181
fission-0181
fission-0181
fission-0181
fission-0181
fission-0181
fission-0181
fission-0181
fission-0181
fission-0181
fission-0181
fission-0187
fission-0187
fission-0187
fission-0187
fission-0187
fission-0187
fission-0187
fission-0187
fission-0187
fission-0187
fission-0187
fission-0187
fission-0187
fission-0187
fission-0187
fission-0187
fission-0187
fission-0187
fission-0187
fission-0187
fission-0187
fission-0187
fission-0187
fission-0187
fission-0187
fission-0187
fission-0187
fission-0187
fission-0187
fission-0187
fission-0187
fission-0187
fission-0186
fission-0186
fission-0186
fission-0186
fission-0186
fission-0186
fission-0186
fission-0186
fission-0186
fission-0186
fission-0186
fission-0186
fission-0186
fission-0186
fission-0186
fission-0186
fission-0186
fission-0186
fission-0186
fission-0186
fission-0186
fission-0186
fission-0186
fission-0186
fission-0186
fission-0186
fission-0186
fission-0186
fission-0186
fission-0186
fission-0186
fission-0186
fission-0189
fission-0189
fission-0189
fission-0189
fission-0189
fission-0189
fission-0189
fission-0189
fission-0189
fission-0189
fission-0189
fission-0189
fission-0189
fission-0189
fission-0189
fission-0189
fission-0189
fission-0189
fission-0189
fission-0189
fission-0189
fission-0189
fission-0189
fission-0189
fission-0189
fission-0189
fission-0189
fission-0189
fission-0189
fission-0189
fission-0189
fission-0189
fission-0194
fission-0194
fission-0194
fission-0194
fission-0194
fission-0194
fission-0194
fission-0194
fission-0194
fission-0194
fission-0194
fission-0194
fission-0194
fission-0194
fission-0194
fission-0194
fission-0194
fission-0194
fission-0194
fission-0194
fission-0194
fission-0194
fission-0194
fission-0194
fission-0194
fission-0194
fission-0194
fission-0194
fission-0194
fission-0194
fission-0194
fission-0194
fission-0170
fission-0170
fission-0170
fission-0170
fission-0170
fission-0170
fission-0170
fission-0170
fission-0170
fission-0170
fission-0170
fission-0170
fission-0170
fission-0170
fission-0170
fission-0170
fission-0170
fission-0170
fission-0170
fission-0170
fission-0170
fission-0170
fission-0170
fission-0170
fission-0170
fission-0170
fission-0170
fission-0170
fission-0170
fission-0170
fission-0170
fission-0170
fission-0193
fission-0193
fission-0193
fission-0193
fission-0193
fission-0193
fission-0193
fission-0193
fission-0193
fission-0193
fission-0193
fission-0193
fission-0193
fission-0193
fission-0193
fission-0193
fission-0193
fission-0193
fission-0193
fission-0193
fission-0193
fission-0193
fission-0193
fission-0193
fission-0193
fission-0193
fission-0193
fission-0193
fission-0193
fission-0193
fission-0193
fission-0193

The following PBS extra args (PBS_EXTRA_ARGS) will be used: -P ldrd
The following lammps extra args (LAMMPS_EXTRA_ARGS) will be used:
LAMMPS (16 Feb 2016)
#log		log.c
units           metal
dimension       3
boundary        p p p
atom_style      atomic
shell         mkdir  cfg
shell         mkdir  dump

# ----------------------- ATOM DEFINITION & Force Field -------------
# ----------------------- ATOM DEFINITION ----------------------------
lattice         fcc 4.024845358 #origin 0.0 0.0 0.0 orient x 1 -1 0 orient y 1 1 -2 orient z 1 1 1
Lattice spacing in x,y,z = 4.02485 4.02485 4.02485
variable        Lx equal 52
variable        Ly equal 2
variable        Lz equal 208
variable        boxLZ equal 218
region          SYSTEM block -52 52 -2 2 -208 0 units lattice
region          BOX block -52 52 -2 2 -218 5 units lattice
create_box      1 BOX
Created orthogonal box = (-209.292 -8.04969 -877.416) to (209.292 8.04969 20.1242)
create_atoms    1 region SYSTEM
Created 346944 atoms

delete_atoms     porosity BOX 0.005 1450    ##random seed <RAND1>
Deleted 1719 atoms, new total = 345225

#---------------------------------------------------------------------------------
pair_style      eam/alloy
pair_coeff  	  * * Al_wkg_MSMSE_2009.set Al

#----------------------------------------------------------------------------------
velocity       all create 300.0 17616 mom yes rot yes dist gaussian         ##random seed <RAND2>

fix             1 all npt temp 300 300 0.1 iso 0.0 0.0 2
run      10000
  1 neighbor list requests
  update every 1 steps, delay 10 steps, check yes
Setting up Verlet run ...
  Unit style  : metal
  Current step: 0
  Time step   : 0.001
Step Temp E_pair E_mol TotEng Press Volume
0          300   -911352.05            0   -897964.94    763.72832    6048473.6
Loop time of 58.5395 on 512 procs for 10000 steps with 345225 atoms

unfix 1

fix            2 all nvt temp 300.0 300.0 0.1

run      10000
Setting up Verlet run ...
  Unit style  : metal
  Current step: 10000
  Time step   : 0.001
Step Temp E_pair E_mol TotEng Press
10000    300.03968   -897518.81            0   -884129.93   -26.297922
Loop time of 58.4865 on 512 procs for 10000 steps with 345225 atoms

reset_timestep 0
unfix    2
#---------------------- DEFINE Laser GERION and GROUP ----------------
region       R1  block -75  75  INF  INF  INF  5  units box
group        G1 region R1
123604 atoms in group G1
group        G2 subtract all G1
221621 atoms in group G2

#define     temperature/pressure calculation  group
variable    x1atom atom "x>=0  &&  x<4 &&  z>-40 && z<1"     ##NEW!!!!!!!!!!!!
variable    x2atom atom "x>=-209.292  &&  x<-205.292 &&  z>-40 && z<1"
variable    x3atom atom "x>=0  &&  x<4 &&  z>-20 && z<1"
variable    x4atom atom "x>=-209.292  &&  x<-205.292 &&  z>-20 && z<1"
variable    x5atom atom "x>=196  &&  x<200 &&  z>-40 && z<1"

group       x1atom variable x1atom
146 atoms in group x1atom
group       x2atom variable x2atom
160 atoms in group x2atom
group       x3atom variable x3atom
74 atoms in group x3atom
group       x4atom variable x4atom
80 atoms in group x4atom
group       x5atom variable x5atom
161 atoms in group x5atom

compute      COM1x x1atom com
compute      COM2x x2atom com
compute      COM3x x3atom com
compute      COM4x x4atom com
compute      COM5x x5atom com

compute      COMall all com

#Temperature profile
#variable      Tprofile atom 300*(1+(step/5000)*2.5*exp(z/40))
variable      Tprofile atom 300*(1+(step/5000)*2.5*exp(z/75))

# ------------------------- SETTINGS ---------------------------------
thermo          100
thermo_style    custom step lx pxx pyy pzz temp c_COM1x[1] c_COM1x[2] c_COM1x[3] c_COM2x[1] c_COM2x[2] c_COM2x[3] c_COM3x[1] c_COM3x[2] c_COM3x[3] c_COM4x[1] c_COM4x[2] c_COM4x[3]  c_COM5x[1] c_COM5x[2] c_COM5x[3] c_COMall[1] c_COMall[2] c_COMall[3]

timestep       0.002

compute dispall all displace/atom
# ---------------- Run Laser Material Interaction --------------------
#dump          1 all custom 1000 dump/z1dump.atom id type x y z c_dispall[1]  c_dispall[2]  c_dispall[3] c_dispall[4]
#dump          2 all cfg 100 cfg/*.cfg mass type xs ys zs
#dump_modify   2 element Al

#relax for 2 PS
#fix           1 all nvt temp 300.0 300.0 0.1
#run  1000
#unfix         1

fix           1  all nve
fix           3temp  G1  langevin  v_Tprofile  0  0.1  378411   #TEST ALL
run           5000
Setting up Verlet run ...
  Unit style  : metal
  Current step: 0
  Time step   : 0.002
Step Lx Pxx Pyy Pzz Temp COM1x[1] COM1x[2] COM1x[3] COM2x[1] COM2x[2] COM2x[3] COM3x[1] COM3x[2] COM3x[3] COM4x[1] COM4x[2] COM4x[3] COM5x[1] COM5x[2] COM5x[3] COMall[1 COMall[2 COMall[3
0     421.2768    102.65815     124.6055    -152.4595    300.34315    1.3624766   -1.0636409   -19.885021    -207.6851  -0.85380353   -20.128253    1.4248077   -1.1505911   -9.9413151   -207.68082  -0.83345626   -9.9854809    197.38441  -0.93006337    -19.94608   -1.0287802   -1.0129164   -418.52639
Averages over the last 26 of 51 rows, steps 2500 to 5000:
Lx Pxx Pyy Pzz Temp COM1x[1] COM1x[2] COM1x[3] COM2x[1] COM2x[2] COM2x[3] COM3x[1] COM3x[2] COM3x[3] COM4x[1] COM4x[2] COM4x[3] COM5x[1] COM5x[2] COM5x[3] COMall[1 COMall[2 COMall[3
421.277 1111.98 1059.63 625.993 322.161 1.27851 -0.972726 -19.6003 -207.658 -0.962138 -20.0916 1.39619 -0.958514 -9.43288 -207.671 -0.963471 -9.9314 197.477 -0.986615 -19.9617 -1.02545 -1.00081 -418.544
Loop time of 30.9838 on 512 procs for 5000 steps with 345225 atoms

variable  com1_x equal "c_COM1x[1]"
variable  com1_y equal "c_COM1x[2]"
variable  com1_z equal "c_COM1x[3]"
variable  com2_x equal "c_COM2x[1]"
variable  com2_y equal "c_COM2x[2]"
variable  com2_z equal "c_COM2x[3]"
variable  com3_x equal "c_COM3x[1]"
variable  com3_y equal "c_COM3x[2]"
variable  com3_z equal "c_COM3x[3]"
variable  com4_x equal "c_COM4x[1]"
variable  com4_y equal "c_COM4x[2]"
variable  com4_z equal "c_COM4x[3]"
variable  com5_x equal "c_COM5x[1]"
variable  com5_y equal "c_COM5x[2]"
variable  com5_z equal "c_COM5x[3]"
variable  comall_x equal "c_COMall[1]"
variable  comall_y equal "c_COMall[2]"
variable  comall_z equal "c_COMall[3]"

#-------------------------- Wave Propagation -------------------------
unfix        3temp
run          1000000
Setting up Verlet run ...
  Unit style  : metal
  Current step: 5000
  Time step   : 0.002
Step Lx Pxx Pyy Pzz Temp COM1x[1] COM1x[2] COM1x[3] COM2x[1] COM2x[2] COM2x[3] COM3x[1] COM3x[2] COM3x[3] COM4x[1] COM4x[2] COM4x[3] COM5x[1] COM5x[2] COM5x[3] COMall[1 COMall[2 COMall[3
5000     421.2768    1456.5885    1360.0565    842.18839    331.01539    1.2578974  -0.88671723   -19.488291   -207.67514   -1.0280101   -20.034178    1.3232632  -0.96764697   -9.2143527   -207.65545   -1.0962492   -9.8497679    197.49871   -1.1415666   -19.927699   -1.0282033  -0.99551631   -418.55528
Averages over the last 5001 of 10001 rows, steps 505000 to 1005000:
Lx Pxx Pyy Pzz Temp COM1x[1] COM1x[2] COM1x[3] COM2x[1] COM2x[2] COM2x[3] COM3x[1] COM3x[2] COM3x[3] COM4x[1] COM4x[2] COM4x[3] COM5x[1] COM5x[2] COM5x[3] COMall[1 COMall[2 COMall[3
421.277 1010.23 988.803 -6.61316 331.625 -20.9017 0.625125 -32.2093 -229.906 0.39078 -32.3789 -20.7142 0.717929 -22.1602 -229.905 0.390754 -22.22 175.159 0.359936 -32.2435 -23.3556 0.3913 -431.473
Loop time of 5835.72 on 512 procs for 1000000 steps with 345225 atoms
