fission-0072
fission-0072
fission-0072
fission-0072
fission-0072
fission-0072
fission-0072
fission-0072
fission-0072
fission-0072
fission-0072
fission-0072
fission-0072
fission-0072
fission-0072
fission-0072
fission-0072
fission-0072
fission-0072
fission-0072
fission-0072
fission-0072
fission-0072
fission-0072
fission-0072
fission-0072
fission-0072
fission-0072
fission-0072
fission-0072
fission-0072
fission-0072
fission-0057
fission-0057
fission-0057
fission-0057
fission-0057
fission-0057
fission-0057
fission-0057
fission-0057
fission-0057
fission-0057
fission-0057
fission-0057
fission-0057
fission-0057
fission-0057
fission-0057
fission-0057
fission-0057
fission-0057
fission-0057
fission-0057
fission-0057
fission-0057
fission-0057
fission-0057
fission-0057
fission-0057
fission-0057
fission-0057
fission-0057
fission-0057
fission-0084
fission-0084
fission-0084
fission-0084
fission-0084
fission-0084
fission-0084
fission-0084
fission-0084
fission-0084
fission-0084
fission-0084
fission-0084
fission-0084
fission-0084
fission-0084
fission-0084
fission-0084
fission-0084
fission-0084
fission-0084
fission-0084
fission-0084
fission-0084
fission-0084
fission-0084
fission-0084
fission-0084
fission-0084
fission-0084
fission-0084
fission-0084
fission-0062
fission-0062
fission-0062
fission-0062
fission-0062
fission-0062
fission-0062
fission-0062
fission-0062
fission-0062
fission-0062
fission-0062
fission-0062
fission-0062
fission-0062
fission-0062
fission-0062
fission-0062
fission-0062
fission-0062
fission-0062
fission-0062
fission-0062
fission-0062
fission-0062
fission-0062
fission-0062
fission-0062
fission-0062
fission-0062
fission-0062
fission-0062
fission-0063
fission-0063
fission-0063
fission-0063
fission-0063
fission-0063
fission-0063
fission-0063
fission-0063
fission-0063
fission-0063
fission-0063
fission-0063
fission-0063
fission-0063
fission-0063
fission-0063
fission-0063
fission-0063
fission-0063
fission-0063
fission-0063
fission-0063
fission-0063
fission-0063
fission-0063
fission-0063
fission-0063
fission-0063
fission-0063
fission-0063
fission-0063
fission-0064
fission-0064
fission-0064
fission-0064
fission-0064
fission-0064
fission-0064
fission-0064
fission-0064
fission-0064
fission-0064
fission-0064
fission-0064
fission-0064
fission-0064
fission-0064
fission-0064
fission-0064
fission-0064
fission-0064
fission-0064
fission-0064
fission-0064
fission-0064
fission-0064
fission-0064
fission-0064
fission-0064
fission-0064
fission-0064
fission-0064
fission-0064
fission-0067
fission-0067
fission-0067
fission-0067
fission-0067
fission-0067
fission-0067
fission-0067
fission-0067
fission-0067
fission-0067
fission-0067
fission-0067
fission-0067
fission-0067
fission-0067
fission-0067
fission-0067
fission-0067
fission-0067
fission-0067
fission-0067
fission-0067
fission-0067
fission-0067
fission-0067
fission-0067
fission-0067
fission-0067
fission-0067
fission-0067
fission-0067
fission-0082
fission-0082
fission-0082
fission-0082
fission-0082
fission-0082
fission-0082
fission-0082
fission-0082
fission-0082
fission-0082
fission-0082
fission-0082
fission-0082
fission-0082
fission-0082
fission-0082
fission-0082
fission-0082
fission-0082
fission-0082
fission-0082
fission-0082
fission-0082
fission-0082
fission-0082
fission-0082
fission-0082
fission-0082
fission-0082
fission-0082
fission-0082
fission-0079
fission-0079
fission-0079
fission-0079
fission-0079
fission-0079
fission-0079
fission-0079
fission-0079
fission-0079
fission-0079
fission-0079
fission-0079
fission-0079
fission-0079
fission-0079
fission-0079
fission-0079
fission-0079
fission-0079
fission-0079
fission-0079
fission-0079
fission-0079
fission-0079
fission-0079
fission-0079
fission-0079
fission-0079
fission-0079
fission-0079
fission-0079
fission-0059
fission-0059
fission-0059
fission-0059
fission-0059
fission-0059
fission-0059
fission-0059
fission-0059
fission-0059
fission-0059
fission-0059
fission-0059
fission-0059
fission-0059
fission-0059
fission-0059
fission-0059
fission-0059
fission-0059
fission-0059
fission-0059
fission-0059
fission-0059
fission-0059
fission-0059
fission-0059
fission-0059
fission-0059
fission-0059
fission-0059
fission-0059
fission-0060
fission-0060
fission-0060
fission-0060
fission-0060
fission-0060
fission-0060
fission-0060
fission-0060
fission-0060
fission-0060
fission-0060
fission-0060
fission-0060
fission-0060
fission-0060
fission-0060
fission-0060
fission-0060
fission-0060
fission-0060
fission-0060
fission-0060
fission-0060
fission-0060
fission-0060
fission-0060
fission-0060
fission-0060
fission-0060
fission-0060
fission-0060
fission-0073
fission-0073
fission-0073
fission-0073
fission-0073
fission-0073
fission-0073
fission-0073
fission-0073
fission-0073
fission-0073
fission-0073
fission-0073
fission-0073
fission-0073
fission-0073
fission-0073
fission-0073
fission-0073
fission-0073
fission-0073
fission-0073
fission-0073
fission-0073
fission-0073
fission-0073
fission-0073
fission-0073
fission-0073
fission-0073
fission-0073
fission-0073
fission-0078
fission-0078
fission-0078
fission-0078
fission-0078
fission-0078
fission-0078
fission-0078
fission-0078
fission-0078
fission-0078
fission-0078
fission-0078
fission-0078
fission-0078
fission-0078
fission-0078
fission-0078
fission-0078
fission-0078
fission-0078
fission-0078
fission-0078
fission-0078
fission-0078
fission-0078
fission-0078
fission-0078
fission-0078
fission-0078
fission-0078
fission-0078
fission-0080
fission-0080
fission-0080
fission-0080
fission-0080
fission-0080
fission-0080
fission-0080
fission-0080
fission-0080
fission-0080
fission-0080
fission-0080
fission-0080
fission-0080
fission-0080
fission-0080
fission-0080
fission-0080
fission-0080
fission-0080
fission-0080
fission-0080
fission-0080
fission-0080
fission-0080
fission-0080
fission-0080
fission-0080
fission-0080
fission-0080
fission-0080
fission-0076
fission-0076
fission-0076
fission-0076
fission-0076
fission-0076
fission-0076
fission-0076
fission-0076
fission-0076
fission-0076
fission-0076
fission-0076
fission-0076
fission-0076
fission-0076
fission-0076
fission-0076
fission-0076
fission-0076
fission-0076
fission-0076
fission-0076
fission-0076
fission-0076
fission-0076
fission-0076
fission-0076
fission-0076
fission-0076
fission-0076
fission-0076
fission-0081
fission-0081
fission-0081
fission-0081
fission-0081
fission-0081
fission-0081
fission-0081
fission-0081
fission-0081
fission-0081
fission-0081
fission-0081
fission-0081
fission-0081
fission-0081
fission-0081
fission-0081
fission-0081
fission-0081
fission-0081
fission-0081
fission-0081
fission-0081
fission-0081
fission-0081
fission-0081
fission-0081
fission-0081
fission-0081
fission-0081
fission-0081

The following PBS extra args (PBS_EXTRA_ARGS) will be used: -P ldrd
The following lammps extra args (LAMMPS_EXTRA_ARGS) will be used:
LAMMPS (16 Feb 2016)
#log		log.c
units           metal
dimension       3
boundary        p p p
atom_style      atomic
shell         mkdir  cfg
shell         mkdir  dump

# ----------------------- ATOM DEFINITION & Force Field -------------
# ----------------------- ATOM DEFINITION ----------------------------
lattice         fcc 4.024845358 #origin 0.0 0.0 0.0 orient x 1 -1 0 orient y 1 1 -2 orient z 1 1 1
Lattice spacing in x,y,z = 4.02485 4.02485 4.02485
variable        Lx equal 52
variable        Ly equal 2
variable        Lz equal 208
variable        boxLZ equal 218
region          SYSTEM block -52 52 -2 2 -208 0 units lattice
region          BOX block -52 52 -2 2 -218 5 units lattice
create_box      1 BOX
Created orthogonal box = (-209.292 -8.04969 -877.416) to (209.292 8.04969 20.1242)
create_atoms    1 region SYSTEM
Created 346944 atoms

delete_atoms     porosity BOX 0.005 14311    ##random seed <RAND1>
Deleted 1676 atoms, new total = 345268

#---------------------------------------------------------------------------------
pair_style      eam/alloy
pair_coeff  	  * * Al_wkg_MSMSE_2009.set Al

#----------------------------------------------------------------------------------
velocity       all create 300.0 9256 mom yes rot yes dist gaussian         ##random seed <RAND2>

fix             1 all npt temp 300 300 0.1 iso 0.0 0.0 2
run      10000
  1 neighbor list requests
  update every 1 steps, delay 10 steps, check yes
Setting up Verlet run ...
  Unit style  : metal
  Current step: 0
  Time step   : 0.001
Step Temp E_pair E_mol TotEng Press Volume
0          300   -911499.54            0   -898110.76    799.37022    6048473.6
Loop time of 63.5486 on 512 procs for 10000 steps with 345268 atoms

unfix 1

fix            2 all nvt temp 300.0 300.0 0.1

run      10000
Setting up Verlet run ...
  Unit style  : metal
  Current step: 10000
  Time step   : 0.001
Step Temp E_pair E_mol TotEng Press
10000    299.35038   -897652.01            0   -884292.22    27.985038
Loop time of 60.3069 on 512 procs for 10000 steps with 345268 atoms

reset_timestep 0
unfix    2
#---------------------- DEFINE Laser GERION and GROUP ----------------
region       R1  block -75  75  INF  INF  INF  5  units box
group        G1 region R1
123502 atoms in group G1
group        G2 subtract all G1
221766 atoms in group G2

#define     temperature/pressure calculation  group
variable    x1atom atom "x>=0  &&  x<4 &&  z>-40 && z<1"     ##NEW!!!!!!!!!!!!
variable    x2atom atom "x>=-209.292  &&  x<-205.292 &&  z>-40 && z<1"
variable    x3atom atom "x>=0  &&  x<4 &&  z>-20 && z<1"
variable    x4atom atom "x>=-209.292  &&  x<-205.292 &&  z>-20 && z<1"
variable    x5atom atom "x>=196  &&  x<200 &&  z>-40 && z<1"

group       x1atom variable x1atom
146 atoms in group x1atom
group       x2atom variable x2atom
160 atoms in group x2atom
group       x3atom variable x3atom
71 atoms in group x3atom
group       x4atom variable x4atom
80 atoms in group x4atom
group       x5atom variable x5atom
160 atoms in group x5atom

compute      COM1x x1atom com
compute      COM2x x2atom com
compute      COM3x x3atom com
compute      COM4x x4atom com
compute      COM5x x5atom com

compute      COMall all com

#Temperature profile
#variable      Tprofile atom 300*(1+(step/5000)*2.5*exp(z/40))
variable      Tprofile atom 300*(1+(step/5000)*2.5*exp(z/75))

# ------------------------- SETTINGS ---------------------------------
thermo          100
thermo_style    custom step lx pxx pyy pzz temp c_COM1x[1] c_COM1x[2] c_COM1x[3] c_COM2x[1] c_COM2x[2] c_COM2x[3] c_COM3x[1] c_COM3x[2] c_COM3x[3] c_COM4x[1] c_COM4x[2] c_COM4x[3]  c_COM5x[1] c_COM5x[2] c_COM5x[3] c_COMall[1] c_COMall[2] c_COMall[3]

timestep       0.002

compute dispall all displace/atom
# ---------------- Run Laser Material Interaction --------------------
#dump          1 all custom 1000 dump/z1dump.atom id type x y z c_dispall[1]  c_dispall[2]  c_dispall[3] c_dispall[4]
#dump          2 all cfg 100 cfg/*.cfg mass type xs ys zs
#dump_modify   2 element Al

#relax for 2 PS
#fix           1 all nvt temp 300.0 300.0 0.1
#run  1000
#unfix         1

fix           1  all nve
fix           3temp  G1  langevin  v_Tprofile  0  0.1  378411   #TEST ALL
run           5000
Setting up Verlet run ...
  Unit style  : metal
  Current step: 0
  Time step   : 0.002
Step Lx Pxx Pyy Pzz Temp COM1x[1] COM1x[2] COM1x[3] COM2x[1] COM2x[2] COM2x[3] COM3x[1] COM3x[2] COM3x[3] COM4x[1] COM4x[2] COM4x[3] COM5x[1] COM5x[2] COM5x[3] COMall[1 COMall[2 COMall[3
0    421.25504    174.68758    158.76819   -195.42766    299.90881    2.2336404   -1.2728104   -20.362344   -207.61397   -1.1856169   -20.052511    2.3218224   -1.2856521   -10.304243   -207.63074   -1.1908033   -9.8983647    197.44043   -1.1424934   -20.020733   -1.0200994   -1.0127496   -418.49551
Averages over the last 26 of 51 rows, steps 2500 to 5000:
Lx Pxx Pyy Pzz Temp COM1x[1] COM1x[2] COM1x[3] COM2x[1] COM2x[2] COM2x[3] COM3x[1] COM3x[2] COM3x[3] COM4x[1] COM4x[2] COM4x[3] COM5x[1] COM5x[2] COM5x[3] COMall[1 COMall[2 COMall[3
421.255 1202.68 1158.15 654.002 322.073 2.22905 -1.24068 -20.1169 -207.606 -1.03266 -20.0182 2.3431 -1.20144 -9.89547 -207.607 -1.03831 -9.84166 197.513 -1.01905 -20.0206 -1.00007 -1.01847 -418.512
Loop time of 31.9092 on 512 procs for 5000 steps with 345268 atoms

variable  com1_x equal "c_COM1x[1]"
variable  com1_y equal "c_COM1x[2]"
variable  com1_z equal "c_COM1x[3]"
variable  com2_x equal "c_COM2x[1]"
variable  com2_y equal "c_COM2x[2]"
variable  com2_z equal "c_COM2x[3]"
variable  com3_x equal "c_COM3x[1]"
variable  com3_y equal "c_COM3x[2]"
variable  com3_z equal "c_COM3x[3]"
variable  com4_x equal "c_COM4x[1]"
variable  com4_y equal "c_COM4x[2]"
variable  com4_z equal "c_COM4x[3]"
variable  com5_x equal "c_COM5x[1]"
variable  com5_y equal "c_COM5x[2]"
variable  com5_z equal "c_COM5x[3]"
variable  comall_x equal "c_COMall[1]"
variable  comall_y equal "c_COMall[2]"
variable  comall_z equal "c_COMall[3]"

#-------------------------- Wave Propagation -------------------------
unfix        3temp
run          1000000
Setting up Verlet run ...
  Unit style  : metal
  Current step: 5000
  Time step   : 0.002
Step Lx Pxx Pyy Pzz Temp COM1x[1] COM1x[2] COM1x[3] COM2x[1] COM2x[2] COM2x[3] COM3x[1] COM3x[2] COM3x[3] COM4x[1] COM4x[2] COM4x[3] COM5x[1] COM5x[2] COM5x[3] COMall[1 COMall[2 COMall[3
5000    421.25504     1506.872    1433.4059    819.16033     331.0809    2.2408044   -1.0491803   -19.936886   -207.69636   -1.0521271   -19.844048    2.3751227    -1.012549    -9.614444   -207.65855   -1.0815293    -9.670934    197.45798   -1.1445206   -19.886822   -1.0148249   -1.0180749   -418.52044
Averages over the last 5001 of 10001 rows, steps 505000 to 1005000:
Lx Pxx Pyy Pzz Temp COM1x[1] COM1x[2] COM1x[3] COM2x[1] COM2x[2] COM2x[3] COM3x[1] COM3x[2] COM3x[3] COM4x[1] COM4x[2] COM4x[3] COM5x[1] COM5x[2] COM5x[3] COMall[1 COMall[2 COMall[3
421.255 1079 1058.13 -6.75362 331.486 -19.5814 -5.69558 -32.7344 -229.6 -5.44579 -32.3725 -19.4267 -5.77312 -22.6632 -229.601 -5.44589 -22.2027 175.462 -5.43359 -32.3795 -23.019 -5.44831 -431.517
Loop time of 5842.35 on 512 procs for 1000000 steps with 345268 atoms
