fission-0167
fission-0167
fission-0167
fission-0167
fission-0167
fission-0167
fission-0167
fission-0167
fission-0167
fission-0167
fission-0167
fission-0167
fission-0167
fission-0167
fission-0167
fission-0167
fission-0167
fission-0167
fission-0167
fission-0167
fission-0167
fission-0167
fission-0167
fission-0167
fission-0167
fission-0167
fission-0167
fission-0167
fission-0167
fission-0167
fission-0167
fission-0167
fission-0381
fission-0381
fission-0381
fission-0381
fission-0381
fission-0381
fission-0381
fission-0381
fission-0381
fission-0381
fission-0381
fission-0381
fission-0381
fission-0381
fission-0381
fission-0381
fission-0381
fission-0381
fission-0381
fission-0381
fission-0381
fission-0381
fission-0381
fission-0381
fission-0381
fission-0381
fission-0381
fission-0381
fission-0381
fission-0381
fission-0381
fission-0381
fission-0191
fission-0191
fission-0191
fission-0191
fission-0191
fission-0191
fission-0191
fission-0191
fission-0191
fission-0191
fission-0191
fission-0191
fission-0191
fission-0191
fission-0191
fission-0191
fission-0191
fission-0191
fission-0191
fission-0191
fission-0191
fission-0191
fission-0191
fission-0191
fission-0191
fission-0191
fission-0191
fission-0191
fission-0191
fission-0191
fission-0191
fission-0191
fission-0197
fission-0197
fission-0197
fission-0197
fission-0197
fission-0197
fission-0197
fission-0197
fission-0197
fission-0197
fission-0197
fission-0197
fission-0197
fission-0197
fission-0197
fission-0197
fission-0197
fission-0197
fission-0197
fission-0197
fission-0197
fission-0197
fission-0197
fission-0197
fission-0197
fission-0197
fission-0197
fission-0197
fission-0197
fission-0197
fission-0197
fission-0197
fission-0175
fission-0175
fission-0175
fission-0175
fission-0175
fission-0175
fission-0175
fission-0175
fission-0175
fission-0175
fission-0175
fission-0175
fission-0175
fission-0175
fission-0175
fission-0175
fission-0175
fission-0175
fission-0175
fission-0175
fission-0175
fission-0175
fission-0175
fission-0175
fission-0175
fission-0175
fission-0175
fission-0175
fission-0175
fission-0175
fission-0175
fission-0175
fission-0242
fission-0242
fission-0242
fission-0242
fission-0242
fission-0242
fission-0242
fission-0242
fission-0242
fission-0242
fission-0242
fission-0242
fission-0242
fission-0242
fission-0242
fission-0242
fission-0242
fission-0242
fission-0242
fission-0242
fission-0242
fission-0242
fission-0242
fission-0242
fission-0242
fission-0242
fission-0242
fission-0242
fission-0242
fission-0242
fission-0242
fission-0242
fission-0216
fission-0216
fission-0216
fission-0216
fission-0216
fission-0216
fission-0216
fission-0216
fission-0216
fission-0216
fission-0216
fission-0216
fission-0216
fission-0216
fission-0216
fission-0216
fission-0216
fission-0216
fission-0216
fission-0216
fission-0216
fission-0216
fission-0216
fission-0216
fission-0216
fission-0216
fission-0216
fission-0216
fission-0216
fission-0216
fission-0216
fission-0216
fission-0077
fission-0077
fission-0077
fission-0077
fission-0077
fission-0077
fission-0077
fission-0077
fission-0077
fission-0077
fission-0077
fission-0077
fission-0077
fission-0077
fission-0077
fission-0077
fission-0077
fission-0077
fission-0077
fission-0077
fission-0077
fission-0077
fission-0077
fission-0077
fission-0077
fission-0077
fission-0077
fission-0077
fission-0077
fission-0077
fission-0077
fission-0077
fission-0255
fission-0255
fission-0255
fission-0255
fission-0255
fission-0255
fission-0255
fission-0255
fission-0255
fission-0255
fission-0255
fission-0255
fission-0255
fission-0255
fission-0255
fission-0255
fission-0255
fission-0255
fission-0255
fission-0255
fission-0255
fission-0255
fission-0255
fission-0255
fission-0255
fission-0255
fission-0255
fission-0255
fission-0255
fission-0255
fission-0255
fission-0255
fission-0282
fission-0282
fission-0282
fission-0282
fission-0282
fission-0282
fission-0282
fission-0282
fission-0282
fission-0282
fission-0282
fission-0282
fission-0282
fission-0282
fission-0282
fission-0282
fission-0282
fission-0282
fission-0282
fission-0282
fission-0282
fission-0282
fission-0282
fission-0282
fission-0282
fission-0282
fission-0282
fission-0282
fission-0282
fission-0282
fission-0282
fission-0282
fission-0264
fission-0264
fission-0264
fission-0264
fission-0264
fission-0264
fission-0264
fission-0264
fission-0264
fission-0264
fission-0264
fission-0264
fission-0264
fission-0264
fission-0264
fission-0264
fission-0264
fission-0264
fission-0264
fission-0264
fission-0264
fission-0264
fission-0264
fission-0264
fission-0264
fission-0264
fission-0264
fission-0264
fission-0264
fission-0264
fission-0264
fission-0264
fission-0270
fission-0270
fission-0270
fission-0270
fission-0270
fission-0270
fission-0270
fission-0270
fission-0270
fission-0270
fission-0270
fission-0270
fission-0270
fission-0270
fission-0270
fission-0270
fission-0270
fission-0270
fission-0270
fission-0270
fission-0270
fission-0270
fission-0270
fission-0270
fission-0270
fission-0270
fission-0270
fission-0270
fission-0270
fission-0270
fission-0270
fission-0270
fission-0389
fission-0389
fission-0389
fission-0389
fission-0389
fission-0389
fission-0389
fission-0389
fission-0389
fission-0389
fission-0389
fission-0389
fission-0389
fission-0389
fission-0389
fission-0389
fission-0389
fission-0389
fission-0389
fission-0389
fission-0389
fission-0389
fission-0389
fission-0389
fission-0389
fission-0389
fission-0389
fission-0389
fission-0389
fission-0389
fission-0389
fission-0389
fission-0209
fission-0209
fission-0209
fission-0209
fission-0209
fission-0209
fission-0209
fission-0209
fission-0209
fission-0209
fission-0209
fission-0209
fission-0209
fission-0209
fission-0209
fission-0209
fission-0209
fission-0209
fission-0209
fission-0209
fission-0209
fission-0209
fission-0209
fission-0209
fission-0209
fission-0209
fission-0209
fission-0209
fission-0209
fission-0209
fission-0209
fission-0209
fission-0339
fission-0339
fission-0339
fission-0339
fission-0339
fission-0339
fission-0339
fission-0339
fission-0339
fission-0339
fission-0339
fission-0339
fission-0339
fission-0339
fission-0339
fission-0339
fission-0339
fission-0339
fission-0339
fission-0339
fission-0339
fission-0339
fission-0339
fission-0339
fission-0339
fission-0339
fission-0339
fission-0339
fission-0339
fission-0339
fission-0339
fission-0339
fission-0218
fission-0218
fission-0218
fission-0218
fission-0218
fission-0218
fission-0218
fission-0218
fission-0218
fission-0218
fission-0218
fission-0218
fission-0218
fission-0218
fission-0218
fission-0218
fission-0218
fission-0218
fission-0218
fission-0218
fission-0218
fission-0218
fission-0218
fission-0218
fission-0218
fission-0218
fission-0218
fission-0218
fission-0218
fission-0218
fission-0218
fission-0218

The following PBS extra args (PBS_EXTRA_ARGS) will be used: -P ldrd
The following lammps extra args (LAMMPS_EXTRA_ARGS) will be used:
LAMMPS (16 Feb 2016)
#log		log.c
units           metal
dimension       3
boundary        p p p
atom_style      atomic
shell         mkdir  cfg
shell         mkdir  dump

# ----------------------- ATOM DEFINITION & Force Field -------------
# ----------------------- ATOM DEFINITION ----------------------------
lattice         fcc 4.024845358 #origin 0.0 0.0 0.0 orient x 1 -1 0 orient y 1 1 -2 orient z 1 1 1
Lattice spacing in x,y,z = 4.02485 4.02485 4.02485
variable        Lx equal 52
variable        Ly equal 2
variable        Lz equal 208
variable        boxLZ equal 218
region          SYSTEM block -52 52 -2 2 -208 0 units lattice
region          BOX block -52 52 -2 2 -218 5 units lattice
create_box      1 BOX
Created orthogonal box = (-209.292 -8.04969 -877.416) to (209.292 8.04969 20.1242)
create_atoms    1 region SYSTEM
Created 346944 atoms

delete_atoms     porosity BOX 0.005 8548    ##random seed <RAND1>
Deleted 1660 atoms, new total = 345284

#---------------------------------------------------------------------------------
pair_style      eam/alloy
pair_coeff  	  * * Al_wkg_MSMSE_2009.set Al

#----------------------------------------------------------------------------------
velocity       all create 300.0 19229 mom yes rot yes dist gaussian         ##random seed <RAND2>

fix             1 all npt temp 300 300 0.1 iso 0.0 0.0 2
run      10000
  1 neighbor list requests
  update every 1 steps, delay 10 steps, check yes
Setting up Verlet run ...
  Unit style  : metal
  Current step: 0
  Time step   : 0.001
Step Temp E_pair E_mol TotEng Press Volume
0          300   -911553.58            0   -898164.18     816.4132    6048473.6
Loop time of 62.0195 on 512 procs for 10000 steps with 345284 atoms

unfix 1

fix            2 all nvt temp 300.0 300.0 0.1

run      10000
Setting up Verlet run ...
  Unit style  : metal
  Current step: 10000
  Time step   : 0.001
Step Temp E_pair E_mol TotEng Press
10000    299.71598   -897715.43            0   -884338.71   -12.329048
Loop time of 58.578 on 512 procs for 10000 steps with 345284 atoms

reset_timestep 0
unfix    2
#---------------------- DEFINE Laser GERION and GROUP ----------------
region       R1  block -75  75  INF  INF  INF  5  units box
group        G1 region R1
123551 atoms in group G1
group        G2 subtract all G1
221733 atoms in group G2

#define     temperature/pressure calculation  group
variable    x1atom atom "x>=0  &&  x<4 &&  z>-40 && z<1"     ##NEW!!!!!!!!!!!!
variable    x2atom atom "x>=-209.292  &&  x<-205.292 &&  z>-40 && z<1"
variable    x3atom atom "x>=0  &&  x<4 &&  z>-20 && z<1"
variable    x4atom atom "x>=-209.292  &&  x<-205.292 &&  z>-20 && z<1"
variable    x5atom atom "x>=196  &&  x<200 &&  z>-40 && z<1"

group       x1atom variable x1atom
143 atoms in group x1atom
group       x2atom variable x2atom
158 atoms in group x2atom
group       x3atom variable x3atom
77 atoms in group x3atom
group       x4atom variable x4atom
78 atoms in group x4atom
group       x5atom variable x5atom
159 atoms in group x5atom

compute      COM1x x1atom com
compute      COM2x x2atom com
compute      COM3x x3atom com
compute      COM4x x4atom com
compute      COM5x x5atom com

compute      COMall all com

#Temperature profile
#variable      Tprofile atom 300*(1+(step/5000)*2.5*exp(z/40))
variable      Tprofile atom 300*(1+(step/5000)*2.5*exp(z/75))

# ------------------------- SETTINGS ---------------------------------
thermo          100
thermo_style    custom step lx pxx pyy pzz temp c_COM1x[1] c_COM1x[2] c_COM1x[3] c_COM2x[1] c_COM2x[2] c_COM2x[3] c_COM3x[1] c_COM3x[2] c_COM3x[3] c_COM4x[1] c_COM4x[2] c_COM4x[3]  c_COM5x[1] c_COM5x[2] c_COM5x[3] c_COMall[1] c_COMall[2] c_COMall[3]

timestep       0.002

compute dispall all displace/atom
# ---------------- Run Laser Material Interaction --------------------
#dump          1 all custom 1000 dump/z1dump.atom id type x y z c_dispall[1]  c_dispall[2]  c_dispall[3] c_dispall[4]
#dump          2 all cfg 100 cfg/*.cfg mass type xs ys zs
#dump_modify   2 element Al

#relax for 2 PS
#fix           1 all nvt temp 300.0 300.0 0.1
#run  1000
#unfix         1

fix           1  all nve
fix           3temp  G1  langevin  v_Tprofile  0  0.1  378411   #TEST ALL
run           5000
Setting up Verlet run ...
  Unit style  : metal
  Current step: 0
  Time step   : 0.002
Step Lx Pxx Pyy Pzz Temp COM1x[1] COM1x[2] COM1x[3] COM2x[1] COM2x[2] COM2x[3] COM3x[1] COM3x[2] COM3x[3] COM4x[1] COM4x[2] COM4x[3] COM5x[1] COM5x[2] COM5x[3] COMall[1 COMall[2 COMall[3
0    421.26855    175.78665    207.50805   -99.405953     300.8751    2.1888892   -1.0771484   -18.894178   -207.60789  -0.96992051   -20.166063    2.0304547    -1.165543   -9.4537026   -207.56398  -0.99617555    -9.872495    197.47638   -0.9703572    -19.92413   -1.0328721   -1.0117908   -418.51363
Averages over the last 26 of 51 rows, steps 2500 to 5000:
Lx Pxx Pyy Pzz Temp COM1x[1] COM1x[2] COM1x[3] COM2x[1] COM2x[2] COM2x[3] COM3x[1] COM3x[2] COM3x[3] COM4x[1] COM4x[2] COM4x[3] COM5x[1] COM5x[2] COM5x[3] COMall[1 COMall[2 COMall[3
421.269 1261.55 1226.41 818.253 322.153 2.15219 -1.0545 -18.5538 -207.65 -1.14179 -20.1351 1.9498 -1.12038 -8.9773 -207.641 -1.14101 -9.80001 197.47 -1.13989 -19.9766 -1.02952 -1.01929 -418.515
Loop time of 30.5592 on 512 procs for 5000 steps with 345284 atoms

variable  com1_x equal "c_COM1x[1]"
variable  com1_y equal "c_COM1x[2]"
variable  com1_z equal "c_COM1x[3]"
variable  com2_x equal "c_COM2x[1]"
variable  com2_y equal "c_COM2x[2]"
variable  com2_z equal "c_COM2x[3]"
variable  com3_x equal "c_COM3x[1]"
variable  com3_y equal "c_COM3x[2]"
variable  com3_z equal "c_COM3x[3]"
variable  com4_x equal "c_COM4x[1]"
variable  com4_y equal "c_COM4x[2]"
variable  com4_z equal "c_COM4x[3]"
variable  com5_x equal "c_COM5x[1]"
variable  com5_y equal "c_COM5x[2]"
variable  com5_z equal "c_COM5x[3]"
variable  comall_x equal "c_COMall[1]"
variable  comall_y equal "c_COMall[2]"
variable  comall_z equal "c_COMall[3]"

#-------------------------- Wave Propagation -------------------------
unfix        3temp
run          1000000
Setting up Verlet run ...
  Unit style  : metal
  Current step: 5000
  Time step   : 0.002
Step Lx Pxx Pyy Pzz Temp COM1x[1] COM1x[2] COM1x[3] COM2x[1] COM2x[2] COM2x[3] COM3x[1] COM3x[2] COM3x[3] COM4x[1] COM4x[2] COM4x[3] COM5x[1] COM5x[2] COM5x[3] COMall[1 COMall[2 COMall[3
5000    421.26855    1525.9401    1490.6786    969.41579     330.1116    2.1455526  -0.96242579   -18.305458   -207.54441   -1.0517266   -20.007516    1.9920154   -1.0254294   -8.6014368   -207.52038   -1.0446484   -9.6556429    197.57636    -1.109207   -19.848243    -1.034506   -1.0114922   -418.52131
Averages over the last 5001 of 10001 rows, steps 505000 to 1005000:
Lx Pxx Pyy Pzz Temp COM1x[1] COM1x[2] COM1x[3] COM2x[1] COM2x[2] COM2x[3] COM3x[1] COM3x[2] COM3x[3] COM4x[1] COM4x[2] COM4x[3] COM5x[1] COM5x[2] COM5x[3] COMall[1 COMall[2 COMall[3
421.269 1036.39 1015.74 -7.6118 331.074 -11.5315 3.45549 -25.5396 -221.345 3.42035 -26.7842 -11.7412 3.35393 -16.1246 -221.336 3.42036 -16.4507 183.71 3.42669 -26.6373 -14.7845 3.42089 -425.826
Loop time of 5839.38 on 512 procs for 1000000 steps with 345284 atoms
