fission-0355
fission-0355
fission-0355
fission-0355
fission-0355
fission-0355
fission-0355
fission-0355
fission-0355
fission-0355
fission-0355
fission-0355
fission-0355
fission-0355
fission-0355
fission-0355
fission-0355
fission-0355
fission-0355
fission-0355
fission-0355
fission-0355
fission-0355
fission-0355
fission-0355
fission-0355
fission-0355
fission-0355
fission-0355
fission-0355
fission-0355
fission-0355
fission-0358
fission-0358
fission-0358
fission-0358
fission-0358
fission-0358
fission-0358
fission-0358
fission-0358
fission-0358
fission-0358
fission-0358
fission-0358
fission-0358
fission-0358
fission-0358
fission-0358
fission-0358
fission-0358
fission-0358
fission-0358
fission-0358
fission-0358
fission-0358
fission-0358
fission-0358
fission-0358
fission-0358
fission-0358
fission-0358
fission-0358
fission-0358
fission-0341
fission-0341
fission-0341
fission-0341
fission-0341
fission-0341
fission-0341
fission-0341
fission-0341
fission-0341
fission-0341
fission-0341
fission-0341
fission-0341
fission-0341
fission-0341
fission-0341
fission-0341
fission-0341
fission-0341
fission-0341
fission-0341
fission-0341
fission-0341
fission-0341
fission-0341
fission-0341
fission-0341
fission-0341
fission-0341
fission-0341
fission-0341
fission-0357
fission-0357
fission-0357
fission-0357
fission-0357
fission-0357
fission-0357
fission-0357
fission-0357
fission-0357
fission-0357
fission-0357
fission-0357
fission-0357
fission-0357
fission-0357
fission-0357
fission-0357
fission-0357
fission-0357
fission-0357
fission-0357
fission-0357
fission-0357
fission-0357
fission-0357
fission-0357
fission-0357
fission-0357
fission-0357
fission-0357
fission-0357
fission-0361
fission-0361
fission-0361
fission-0361
fission-0361
fission-0361
fission-0361
fission-0361
fission-0361
fission-0361
fission-0361
fission-0361
fission-0361
fission-0361
fission-0361
fission-0361
fission-0361
fission-0361
fission-0361
fission-0361
fission-0361
fission-0361
fission-0361
fission-0361
fission-0361
fission-0361
fission-0361
fission-0361
fission-0361
fission-0361
fission-0361
fission-0361
fission-0345
fission-0345
fission-0345
fission-0345
fission-0345
fission-0345
fission-0345
fission-0345
fission-0345
fission-0345
fission-0345
fission-0345
fission-0345
fission-0345
fission-0345
fission-0345
fission-0345
fission-0345
fission-0345
fission-0345
fission-0345
fission-0345
fission-0345
fission-0345
fission-0345
fission-0345
fission-0345
fission-0345
fission-0345
fission-0345
fission-0345
fission-0345
fission-0349
fission-0349
fission-0349
fission-0349
fission-0349
fission-0349
fission-0349
fission-0349
fission-0349
fission-0349
fission-0349
fission-0349
fission-0349
fission-0349
fission-0349
fission-0349
fission-0349
fission-0349
fission-0349
fission-0349
fission-0349
fission-0349
fission-0349
fission-0349
fission-0349
fission-0349
fission-0349
fission-0349
fission-0349
fission-0349
fission-0349
fission-0349
fission-0352
fission-0352
fission-0352
fission-0352
fission-0352
fission-0352
fission-0352
fission-0352
fission-0352
fission-0352
fission-0352
fission-0352
fission-0352
fission-0352
fission-0352
fission-0352
fission-0352
fission-0352
fission-0352
fission-0352
fission-0352
fission-0352
fission-0352
fission-0352
fission-0352
fission-0352
fission-0352
fission-0352
fission-0352
fission-0352
fission-0352
fission-0352
fission-0353
fission-0353
fission-0353
fission-0353
fission-0353
fission-0353
fission-0353
fission-0353
fission-0353
fission-0353
fission-0353
fission-0353
fission-0353
fission-0353
fission-0353
fission-0353
fission-0353
fission-0353
fission-0353
fission-0353
fission-0353
fission-0353
fission-0353
fission-0353
fission-0353
fission-0353
fission-0353
fission-0353
fission-0353
fission-0353
fission-0353
fission-0353
fission-0354
fission-0354
fission-0354
fission-0354
fission-0354
fission-0354
fission-0354
fission-0354
fission-0354
fission-0354
fission-0354
fission-0354
fission-0354
fission-0354
fission-0354
fission-0354
fission-0354
fission-0354
fission-0354
fission-0354
fission-0354
fission-0354
fission-0354
fission-0354
fission-0354
fission-0354
fission-0354
fission-0354
fission-0354
fission-0354
fission-0354
fission-0354
fission-0359
fission-0359
fission-0359
fission-0359
fission-0359
fission-0359
fission-0359
fission-0359
fission-0359
fission-0359
fission-0359
fission-0359
fission-0359
fission-0359
fission-0359
fission-0359
fission-0359
fission-0359
fission-0359
fission-0359
fission-0359
fission-0359
fission-0359
fission-0359
fission-0359
fission-0359
fission-0359
fission-0359
fission-0359
fission-0359
fission-0359
fission-0359
fission-0336
fission-0336
fission-0336
fission-0336
fission-0336
fission-0336
fission-0336
fission-0336
fission-0336
fission-0336
fission-0336
fission-0336
fission-0336
fission-0336
fission-0336
fission-0336
fission-0336
fission-0336
fission-0336
fission-0336
fission-0336
fission-0336
fission-0336
fission-0336
fission-0336
fission-0336
fission-0336
fission-0336
fission-0336
fission-0336
fission-0336
fission-0336
fission-0337
fission-0337
fission-0337
fission-0337
fission-0337
fission-0337
fission-0337
fission-0337
fission-0337
fission-0337
fission-0337
fission-0337
fission-0337
fission-0337
fission-0337
fission-0337
fission-0337
fission-0337
fission-0337
fission-0337
fission-0337
fission-0337
fission-0337
fission-0337
fission-0337
fission-0337
fission-0337
fission-0337
fission-0337
fission-0337
fission-0337
fission-0337
fission-0362
fission-0362
fission-0362
fission-0362
fission-0362
fission-0362
fission-0362
fission-0362
fission-0362
fission-0362
fission-0362
fission-0362
fission-0362
fission-0362
fission-0362
fission-0362
fission-0362
fission-0362
fission-0362
fission-0362
fission-0362
fission-0362
fission-0362
fission-0362
fission-0362
fission-0362
fission-0362
fission-0362
fission-0362
fission-0362
fission-0362
fission-0362
fission-0338
fission-0338
fission-0338
fission-0338
fission-0338
fission-0338
fission-0338
fission-0338
fission-0338
fission-0338
fission-0338
fission-0338
fission-0338
fission-0338
fission-0338
fission-0338
fission-0338
fission-0338
fission-0338
fission-0338
fission-0338
fission-0338
fission-0338
fission-0338
fission-0338
fission-0338
fission-0338
fission-0338
fission-0338
fission-0338
fission-0338
fission-0338
fission-0340
fission-0340
fission-0340
fission-0340
fission-0340
fission-0340
fission-0340
fission-0340
fission-0340
fission-0340
fission-0340
fission-0340
fission-0340
fission-0340
fission-0340
fission-0340
fission-0340
fission-0340
fission-0340
fission-0340
fission-0340
fission-0340
fission-0340
fission-0340
fission-0340
fission-0340
fission-0340
fission-0340
fission-0340
fission-0340
fission-0340
fission-0340

The following PBS extra args (PBS_EXTRA_ARGS) will be used: -P ldrd
The following lammps extra args (LAMMPS_EXTRA_ARGS) will be used:
LAMMPS (16 Feb 2016)
#log		log.c
units           metal
dimension       3
boundary        p p p
atom_style      atomic
shell         mkdir  cfg
shell         mkdir  dump

# ----------------------- ATOM DEFINITION & Force Field -------------
lattice         fcc 3.615 #origin 0.0 0.0 0.0 orient x 1 -1 0 orient y 1 1 -2 orient z 1 1 1
Lattice spacing in x,y,z = 3.615 3.615 3.615
variable        Lx equal 65
variable        Ly equal 3
variable        Lz equal 260
variable        boxLZ equal 270
region          SYSTEM block -65 65 -3 3 -260 0 units lattice
region          BOX block -65 65 -3 3 -270 5 units lattice
create_box      1 BOX
Created orthogonal box = (-234.975 -10.845 -976.05) to (234.975 10.845 18.075)
create_atoms    1 region SYSTEM
Created 812760 atoms

delete_atoms     porosity BOX 0.002 31235
Deleted 1587 atoms, new total = 811173

#---------------------------------------------------------------------

pair_style      eam/alloy
pair_coeff  	  * * Cu01.eam.alloy Cu

#----------------------------------------------------------------------
velocity       all create 300.0 5063 mom yes rot yes dist gaussian
fix             1 all npt temp 300 300 0.1 iso 0.0 0.0 2
run      10000
  1 neighbor list requests
  update every 1 steps, delay 10 steps, check yes
Setting up Verlet run ...
  Unit style  : metal
  Current step: 0
  Time step   : 0.001
Step Temp E_pair E_mol TotEng Press Volume
0          300   -2867759.5            0   -2836303.9    2400.8293     10133330
Loop time of 128.586 on 512 procs for 10000 steps with 811173 atoms

unfix 1

fix            2 all nvt temp 300.0 300.0 0.1

run      10000
Setting up Verlet run ...
  Unit style  : metal
  Current step: 10000
  Time step   : 0.001
Step Temp E_pair E_mol TotEng Press
10000    299.94656   -2835761.7            0   -2804311.6  -0.51521591
Loop time of 123.089 on 512 procs for 10000 steps with 811173 atoms

reset_timestep 0
unfix    2
#---------------------- DEFINE Laser GERION and GROUP ----------------
region       R1  block -75  75  INF  INF  INF  5  units box
group        G1 region R1
258949 atoms in group G1
group        G2 subtract all G1
552224 atoms in group G2

#define     temperature/pressure calculation  group
variable    x1atom atom "x>=0  &&  x<4 &&  z>-40 && z<1"     ##NEW!!!!!!!!!!!!
variable    x2atom atom "x>=-234.98  &&  x<-230.98 &&  z>-40 && z<1"
variable    x3atom atom "x>=0  &&  x<4 &&  z>-20 && z<1"
variable    x4atom atom "x>=-234.98  &&  x<-230.98 &&  z>-20 && z<1"
variable    x5atom atom "x>=196  &&  x<200 &&  z>-40 && z<1"

group       x1atom variable x1atom
382 atoms in group x1atom
group       x2atom variable x2atom
274 atoms in group x2atom
group       x3atom variable x3atom
200 atoms in group x3atom
group       x4atom variable x4atom
143 atoms in group x4atom
group       x5atom variable x5atom
410 atoms in group x5atom

compute      COM1x x1atom com
compute      COM2x x2atom com
compute      COM3x x3atom com
compute      COM4x x4atom com
compute      COM5x x5atom com

compute      COMall all com

#Temperature profile
#variable      Tprofile atom 300*(1+(step/5000)*2.5*exp(z/40))
#variable tmp equal "lz"
variable      Tprofile atom  300+600*(step/5000)*exp(z/40)*exp(-x*x/1289)

# ------------------------- SETTINGS ---------------------------------
thermo          100
thermo_style    custom step lx pxx pyy pzz temp c_COM1x[1] c_COM1x[2] c_COM1x[3] c_COM2x[1] c_COM2x[2] c_COM2x[3] c_COM3x[1] c_COM3x[2] c_COM3x[3] c_COM4x[1] c_COM4x[2] c_COM4x[3]  c_COM5x[1] c_COM5x[2] c_COM5x[3] c_COMall[1] c_COMall[2] c_COMall[3]

timestep       0.002

compute dispall all displace/atom
# ---------------- Run Laser Material Interaction --------------------
#dump          1 all custom 1000 dump/z1dump.atom id type x y z c_dispall[1]  c_dispall[2]  c_dispall[3] c_dispall[4]
#dump          2 all cfg 100 cfg/*.cfg mass type xs ys zs
#dump_modify   2 element Al

#relax for 2 PS
#fix           1 all nvt temp 300.0 300.0 0.1
#run  1000
#unfix         1

fix           1  all nve
fix           3temp  all  langevin  v_Tprofile  0  0.1  378411   #TEST ALL
run           5000
Setting up Verlet run ...
  Unit style  : metal
  Current step: 0
  Time step   : 0.002
Step Lx Pxx Pyy Pzz Temp COM1x[1] COM1x[2] COM1x[3] COM2x[1] COM2x[2] COM2x[3] COM3x[1] COM3x[2] COM3x[3] COM4x[1] COM4x[2] COM4x[3] COM5x[1] COM5x[2] COM5x[3] COMall[1 COMall[2 COMall[3
0    471.97242   -407.36782   -391.41097   -440.15164    299.99554    2.0383581  -0.88964897   -18.968322   -233.17606  -0.95100766   -19.528171    2.0464346   -0.7455762   -8.8871844   -233.15429  -0.94087356   -9.5557818     197.9779  -0.89853747   -19.284807  -0.92644722  -0.90772542   -469.91862
Averages over the last 26 of 51 rows, steps 2500 to 5000:
Lx Pxx Pyy Pzz Temp COM1x[1] COM1x[2] COM1x[3] COM2x[1] COM2x[2] COM2x[3] COM3x[1] COM3x[2] COM3x[3] COM4x[1] COM4x[2] COM4x[3] COM5x[1] COM5x[2] COM5x[3] COMall[1 COMall[2 COMall[3
471.972 -331.863 -324.799 -377.655 302.768 2.02489 -0.909061 -18.9022 -233.151 -0.936266 -19.468 2.01831 -0.781251 -8.79648 -233.16 -0.9272 -9.49095 197.988 -0.869333 -19.3097 -0.928098 -0.907477 -469.92
Loop time of 66.6645 on 512 procs for 5000 steps with 811173 atoms

variable  com1_x equal "c_COM1x[1]"
variable  com1_y equal "c_COM1x[2]"
variable  com1_z equal "c_COM1x[3]"
variable  com2_x equal "c_COM2x[1]"
variable  com2_y equal "c_COM2x[2]"
variable  com2_z equal "c_COM2x[3]"
variable  com3_x equal "c_COM3x[1]"
variable  com3_y equal "c_COM3x[2]"
variable  com3_z equal "c_COM3x[3]"
variable  com4_x equal "c_COM4x[1]"
variable  com4_y equal "c_COM4x[2]"
variable  com4_z equal "c_COM4x[3]"
variable  com5_x equal "c_COM5x[1]"
variable  com5_y equal "c_COM5x[2]"
variable  com5_z equal "c_COM5x[3]"
variable  comall_x equal "c_COMall[1]"
variable  comall_y equal "c_COMall[2]"
variable  comall_z equal "c_COMall[3]"

#-------------------------- Wave Propagation -------------------------
unfix        3temp
run          1000000
Setting up Verlet run ...
  Unit style  : metal
  Current step: 5000
  Time step   : 0.002
Step Lx Pxx Pyy Pzz Temp COM1x[1] COM1x[2] COM1x[3] COM2x[1] COM2x[2] COM2x[3] COM3x[1] COM3x[2] COM3x[3] COM4x[1] COM4x[2] COM4x[3] COM5x[1] COM5x[2] COM5x[3] COMall[1 COMall[2 COMall[3
5000    471.97242   -271.96922   -257.38648   -301.88884    303.55771    2.0481489  -0.91227436   -18.944825   -233.13683  -0.93537615   -19.485126    2.0245609  -0.80691807   -8.8445794   -233.13389  -0.92467188   -9.4836007     197.9849  -0.88409248   -19.329352  -0.92745583  -0.90934232   -469.92254
Averages over the last 5001 of 10001 rows, steps 505000 to 1005000:
Lx Pxx Pyy Pzz Temp COM1x[1] COM1x[2] COM1x[3] COM2x[1] COM2x[2] COM2x[3] COM3x[1] COM3x[2] COM3x[3] COM4x[1] COM4x[2] COM4x[3] COM5x[1] COM5x[2] COM5x[3] COMall[1 COMall[2 COMall[3
471.972 -39.4609 -34.6644 -3.83493 303.799 3.45719 0.340134 -17.583 -231.773 0.313121 -17.9948 3.4499 0.476317 -7.53311 -231.775 0.333216 -8.00584 199.371 0.352961 -17.9007 0.558857 0.339146 -468.464
Loop time of 12311.8 on 512 procs for 1000000 steps with 811173 atoms
