fission-0370
fission-0370
fission-0370
fission-0370
fission-0370
fission-0370
fission-0370
fission-0370
fission-0370
fission-0370
fission-0370
fission-0370
fission-0370
fission-0370
fission-0370
fission-0370
fission-0370
fission-0370
fission-0370
fission-0370
fission-0370
fission-0370
fission-0370
fission-0370
fission-0370
fission-0370
fission-0370
fission-0370
fission-0370
fission-0370
fission-0370
fission-0370
fission-0374
fission-0374
fission-0374
fission-0374
fission-0374
fission-0374
fission-0374
fission-0374
fission-0374
fission-0374
fission-0374
fission-0374
fission-0374
fission-0374
fission-0374
fission-0374
fission-0374
fission-0374
fission-0374
fission-0374
fission-0374
fission-0374
fission-0374
fission-0374
fission-0374
fission-0374
fission-0374
fission-0374
fission-0374
fission-0374
fission-0374
fission-0374
fission-0071
fission-0071
fission-0071
fission-0071
fission-0071
fission-0071
fission-0071
fission-0071
fission-0071
fission-0071
fission-0071
fission-0071
fission-0071
fission-0071
fission-0071
fission-0071
fission-0071
fission-0071
fission-0071
fission-0071
fission-0071
fission-0071
fission-0071
fission-0071
fission-0071
fission-0071
fission-0071
fission-0071
fission-0071
fission-0071
fission-0071
fission-0071
fission-0066
fission-0066
fission-0066
fission-0066
fission-0066
fission-0066
fission-0066
fission-0066
fission-0066
fission-0066
fission-0066
fission-0066
fission-0066
fission-0066
fission-0066
fission-0066
fission-0066
fission-0066
fission-0066
fission-0066
fission-0066
fission-0066
fission-0066
fission-0066
fission-0066
fission-0066
fission-0066
fission-0066
fission-0066
fission-0066
fission-0066
fission-0066
fission-0347
fission-0347
fission-0347
fission-0347
fission-0347
fission-0347
fission-0347
fission-0347
fission-0347
fission-0347
fission-0347
fission-0347
fission-0347
fission-0347
fission-0347
fission-0347
fission-0347
fission-0347
fission-0347
fission-0347
fission-0347
fission-0347
fission-0347
fission-0347
fission-0347
fission-0347
fission-0347
fission-0347
fission-0347
fission-0347
fission-0347
fission-0347
fission-0161
fission-0161
fission-0161
fission-0161
fission-0161
fission-0161
fission-0161
fission-0161
fission-0161
fission-0161
fission-0161
fission-0161
fission-0161
fission-0161
fission-0161
fission-0161
fission-0161
fission-0161
fission-0161
fission-0161
fission-0161
fission-0161
fission-0161
fission-0161
fission-0161
fission-0161
fission-0161
fission-0161
fission-0161
fission-0161
fission-0161
fission-0161
fission-0391
fission-0391
fission-0391
fission-0391
fission-0391
fission-0391
fission-0391
fission-0391
fission-0391
fission-0391
fission-0391
fission-0391
fission-0391
fission-0391
fission-0391
fission-0391
fission-0391
fission-0391
fission-0391
fission-0391
fission-0391
fission-0391
fission-0391
fission-0391
fission-0391
fission-0391
fission-0391
fission-0391
fission-0391
fission-0391
fission-0391
fission-0391
fission-0143
fission-0143
fission-0143
fission-0143
fission-0143
fission-0143
fission-0143
fission-0143
fission-0143
fission-0143
fission-0143
fission-0143
fission-0143
fission-0143
fission-0143
fission-0143
fission-0143
fission-0143
fission-0143
fission-0143
fission-0143
fission-0143
fission-0143
fission-0143
fission-0143
fission-0143
fission-0143
fission-0143
fission-0143
fission-0143
fission-0143
fission-0143
fission-0164
fission-0164
fission-0164
fission-0164
fission-0164
fission-0164
fission-0164
fission-0164
fission-0164
fission-0164
fission-0164
fission-0164
fission-0164
fission-0164
fission-0164
fission-0164
fission-0164
fission-0164
fission-0164
fission-0164
fission-0164
fission-0164
fission-0164
fission-0164
fission-0164
fission-0164
fission-0164
fission-0164
fission-0164
fission-0164
fission-0164
fission-0164
fission-0058
fission-0058
fission-0058
fission-0058
fission-0058
fission-0058
fission-0058
fission-0058
fission-0058
fission-0058
fission-0058
fission-0058
fission-0058
fission-0058
fission-0058
fission-0058
fission-0058
fission-0058
fission-0058
fission-0058
fission-0058
fission-0058
fission-0058
fission-0058
fission-0058
fission-0058
fission-0058
fission-0058
fission-0058
fission-0058
fission-0058
fission-0058
fission-0034
fission-0034
fission-0034
fission-0034
fission-0034
fission-0034
fission-0034
fission-0034
fission-0034
fission-0034
fission-0034
fission-0034
fission-0034
fission-0034
fission-0034
fission-0034
fission-0034
fission-0034
fission-0034
fission-0034
fission-0034
fission-0034
fission-0034
fission-0034
fission-0034
fission-0034
fission-0034
fission-0034
fission-0034
fission-0034
fission-0034
fission-0034
fission-0083
fission-0083
fission-0083
fission-0083
fission-0083
fission-0083
fission-0083
fission-0083
fission-0083
fission-0083
fission-0083
fission-0083
fission-0083
fission-0083
fission-0083
fission-0083
fission-0083
fission-0083
fission-0083
fission-0083
fission-0083
fission-0083
fission-0083
fission-0083
fission-0083
fission-0083
fission-0083
fission-0083
fission-0083
fission-0083
fission-0083
fission-0083
fission-0346
fission-0346
fission-0346
fission-0346
fission-0346
fission-0346
fission-0346
fission-0346
fission-0346
fission-0346
fission-0346
fission-0346
fission-0346
fission-0346
fission-0346
fission-0346
fission-0346
fission-0346
fission-0346
fission-0346
fission-0346
fission-0346
fission-0346
fission-0346
fission-0346
fission-0346
fission-0346
fission-0346
fission-0346
fission-0346
fission-0346
fission-0346
fission-0295
fission-0295
fission-0295
fission-0295
fission-0295
fission-0295
fission-0295
fission-0295
fission-0295
fission-0295
fission-0295
fission-0295
fission-0295
fission-0295
fission-0295
fission-0295
fission-0295
fission-0295
fission-0295
fission-0295
fission-0295
fission-0295
fission-0295
fission-0295
fission-0295
fission-0295
fission-0295
fission-0295
fission-0295
fission-0295
fission-0295
fission-0295
fission-0206
fission-0206
fission-0206
fission-0206
fission-0206
fission-0206
fission-0206
fission-0206
fission-0206
fission-0206
fission-0206
fission-0206
fission-0206
fission-0206
fission-0206
fission-0206
fission-0206
fission-0206
fission-0206
fission-0206
fission-0206
fission-0206
fission-0206
fission-0206
fission-0206
fission-0206
fission-0206
fission-0206
fission-0206
fission-0206
fission-0206
fission-0206
fission-0205
fission-0205
fission-0205
fission-0205
fission-0205
fission-0205
fission-0205
fission-0205
fission-0205
fission-0205
fission-0205
fission-0205
fission-0205
fission-0205
fission-0205
fission-0205
fission-0205
fission-0205
fission-0205
fission-0205
fission-0205
fission-0205
fission-0205
fission-0205
fission-0205
fission-0205
fission-0205
fission-0205
fission-0205
fission-0205
fission-0205
fission-0205

The following PBS extra args (PBS_EXTRA_ARGS) will be used: -P ldrd
The following lammps extra args (LAMMPS_EXTRA_ARGS) will be used:
LAMMPS (16 Feb 2016)
#log		log.c
units           metal
dimension       3
boundary        p p p
atom_style      atomic
shell         mkdir  cfg
shell         mkdir  dump

# ----------------------- ATOM DEFINITION & Force Field -------------
lattice         fcc 3.615 #origin 0.0 0.0 0.0 orient x 1 -1 0 orient y 1 1 -2 orient z 1 1 1
Lattice spacing in x,y,z = 3.615 3.615 3.615
variable        Lx equal 65
variable        Ly equal 3
variable        Lz equal 260
variable        boxLZ equal 270
region          SYSTEM block -65 65 -3 3 -260 0 units lattice
region          BOX block -65 65 -3 3 -270 5 units lattice
create_box      1 BOX
Created orthogonal box = (-234.975 -10.845 -976.05) to (234.975 10.845 18.075)
create_atoms    1 region SYSTEM
Created 812760 atoms

delete_atoms     porosity BOX 0.002 31990
Deleted 1660 atoms, new total = 811100

#---------------------------------------------------------------------

pair_style      eam/alloy
pair_coeff  	  * * Cu01.eam.alloy Cu

#----------------------------------------------------------------------
velocity       all create 300.0 28937 mom yes rot yes dist gaussian
fix             1 all npt temp 300 300 0.1 iso 0.0 0.0 2
run      10000
  1 neighbor list requests
  update every 1 steps, delay 10 steps, check yes
Setting up Verlet run ...
  Unit style  : metal
  Current step: 0
  Time step   : 0.001
Step Temp E_pair E_mol TotEng Press Volume
0          300   -2867406.6            0   -2835953.8    2373.6587     10133330
Loop time of 128.53 on 512 procs for 10000 steps with 811100 atoms

unfix 1

fix            2 all nvt temp 300.0 300.0 0.1

run      10000
Setting up Verlet run ...
  Unit style  : metal
  Current step: 10000
  Time step   : 0.001
Step Temp E_pair E_mol TotEng Press
10000    298.94824   -2835345.8            0   -2804003.3    6.9888235
Loop time of 125.016 on 512 procs for 10000 steps with 811100 atoms

reset_timestep 0
unfix    2
#---------------------- DEFINE Laser GERION and GROUP ----------------
region       R1  block -75  75  INF  INF  INF  5  units box
group        G1 region R1
258939 atoms in group G1
group        G2 subtract all G1
552161 atoms in group G2

#define     temperature/pressure calculation  group
variable    x1atom atom "x>=0  &&  x<4 &&  z>-40 && z<1"     ##NEW!!!!!!!!!!!!
variable    x2atom atom "x>=-234.98  &&  x<-230.98 &&  z>-40 && z<1"
variable    x3atom atom "x>=0  &&  x<4 &&  z>-20 && z<1"
variable    x4atom atom "x>=-234.98  &&  x<-230.98 &&  z>-20 && z<1"
variable    x5atom atom "x>=196  &&  x<200 &&  z>-40 && z<1"

group       x1atom variable x1atom
391 atoms in group x1atom
group       x2atom variable x2atom
276 atoms in group x2atom
group       x3atom variable x3atom
208 atoms in group x3atom
group       x4atom variable x4atom
144 atoms in group x4atom
group       x5atom variable x5atom
312 atoms in group x5atom

compute      COM1x x1atom com
compute      COM2x x2atom com
compute      COM3x x3atom com
compute      COM4x x4atom com
compute      COM5x x5atom com

compute      COMall all com

#Temperature profile
#variable      Tprofile atom 300*(1+(step/5000)*2.5*exp(z/40))
#variable tmp equal "lz"
variable      Tprofile atom  300+600*(step/5000)*exp(z/40)*exp(-x*x/1289)

# ------------------------- SETTINGS ---------------------------------
thermo          100
thermo_style    custom step lx pxx pyy pzz temp c_COM1x[1] c_COM1x[2] c_COM1x[3] c_COM2x[1] c_COM2x[2] c_COM2x[3] c_COM3x[1] c_COM3x[2] c_COM3x[3] c_COM4x[1] c_COM4x[2] c_COM4x[3]  c_COM5x[1] c_COM5x[2] c_COM5x[3] c_COMall[1] c_COMall[2] c_COMall[3]

timestep       0.002

compute dispall all displace/atom
# ---------------- Run Laser Material Interaction --------------------
#dump          1 all custom 1000 dump/z1dump.atom id type x y z c_dispall[1]  c_dispall[2]  c_dispall[3] c_dispall[4]
#dump          2 all cfg 100 cfg/*.cfg mass type xs ys zs
#dump_modify   2 element Al

#relax for 2 PS
#fix           1 all nvt temp 300.0 300.0 0.1
#run  1000
#unfix         1

fix           1  all nve
fix           3temp  all  langevin  v_Tprofile  0  0.1  378411   #TEST ALL
run           5000
Setting up Verlet run ...
  Unit style  : metal
  Current step: 0
  Time step   : 0.002
Step Lx Pxx Pyy Pzz Temp COM1x[1] COM1x[2] COM1x[3] COM2x[1] COM2x[2] COM2x[3] COM3x[1] COM3x[2] COM3x[3] COM4x[1] COM4x[2] COM4x[3] COM5x[1] COM5x[2] COM5x[3] COMall[1 COMall[2 COMall[3
0    472.00239   -416.73779   -411.78526   -332.93767    299.66254    2.0082919  -0.86635942   -19.374384   -233.36251  -0.93586323   -19.454523    1.9759257  -0.73152584   -9.7491841   -233.35266    -0.927598   -9.4842355    198.38049   -0.9569722   -19.552993  -0.91608562  -0.90775733   -469.90812
Averages over the last 26 of 51 rows, steps 2500 to 5000:
Lx Pxx Pyy Pzz Temp COM1x[1] COM1x[2] COM1x[3] COM2x[1] COM2x[2] COM2x[3] COM3x[1] COM3x[2] COM3x[3] COM4x[1] COM4x[2] COM4x[3] COM5x[1] COM5x[2] COM5x[3] COMall[1 COMall[2 COMall[3
472.002 -313.031 -300.993 -254.03 302.831 1.96696 -0.859612 -19.3269 -233.332 -0.949983 -19.4273 1.92788 -0.71941 -9.62995 -233.33 -0.952262 -9.44523 198.415 -0.940924 -19.5465 -0.917754 -0.907459 -469.909
Loop time of 66.887 on 512 procs for 5000 steps with 811100 atoms

variable  com1_x equal "c_COM1x[1]"
variable  com1_y equal "c_COM1x[2]"
variable  com1_z equal "c_COM1x[3]"
variable  com2_x equal "c_COM2x[1]"
variable  com2_y equal "c_COM2x[2]"
variable  com2_z equal "c_COM2x[3]"
variable  com3_x equal "c_COM3x[1]"
variable  com3_y equal "c_COM3x[2]"
variable  com3_z equal "c_COM3x[3]"
variable  com4_x equal "c_COM4x[1]"
variable  com4_y equal "c_COM4x[2]"
variable  com4_z equal "c_COM4x[3]"
variable  com5_x equal "c_COM5x[1]"
variable  com5_y equal "c_COM5x[2]"
variable  com5_z equal "c_COM5x[3]"
variable  comall_x equal "c_COMall[1]"
variable  comall_y equal "c_COMall[2]"
variable  comall_z equal "c_COMall[3]"

#-------------------------- Wave Propagation -------------------------
unfix        3temp
run          1000000
Setting up Verlet run ...
  Unit style  : metal
  Current step: 5000
  Time step   : 0.002
Step Lx Pxx Pyy Pzz Temp COM1x[1] COM1x[2] COM1x[3] COM2x[1] COM2x[2] COM2x[3] COM3x[1] COM3x[2] COM3x[3] COM4x[1] COM4x[2] COM4x[3] COM5x[1] COM5x[2] COM5x[3] COMall[1 COMall[2 COMall[3
5000    472.00239   -205.99195    -210.8104   -172.83019    304.21032    1.9853069  -0.85114633   -19.342562   -233.31978  -0.95255331   -19.422058    1.9528791  -0.76419863   -9.6198558   -233.33959  -0.94971603   -9.4120205    198.43281  -0.94849006   -19.578154  -0.91717509  -0.90916416   -469.91166
Averages over the last 5001 of 10001 rows, steps 505000 to 1005000:
Lx Pxx Pyy Pzz Temp COM1x[1] COM1x[2] COM1x[3] COM2x[1] COM2x[2] COM2x[3] COM3x[1] COM3x[2] COM3x[3] COM4x[1] COM4x[2] COM4x[3] COM5x[1] COM5x[2] COM5x[3] COMall[1 COMall[2 COMall[3
472.002 -108.484 -99.7758 -3.8618 304.232 6.18089 -1.63268 -18.04 -229.031 -1.69565 -18.1778 6.14488 -1.48591 -8.41405 -229.03 -1.69567 -8.18879 202.718 -1.70757 -18.2543 3.33499 -1.69585 -468.597
Loop time of 12221.5 on 512 procs for 1000000 steps with 811100 atoms
