fission-0072
fission-0072
fission-0072
fission-0072
fission-0072
fission-0072
fission-0072
fission-0072
fission-0072
fission-0072
fission-0072
fission-0072
fission-0072
fission-0072
fission-0072
fission-0072
fission-0072
fission-0072
fission-0072
fission-0072
fission-0072
fission-0072
fission-0072
fission-0072
fission-0072
fission-0072
fission-0072
fission-0072
fission-0072
fission-0072
fission-0072
fission-0072
fission-0057
fission-0057
fission-0057
fission-0057
fission-0057
fission-0057
fission-0057
fission-0057
fission-0057
fission-0057
fission-0057
fission-0057
fission-0057
fission-0057
fission-0057
fission-0057
fission-0057
fission-0057
fission-0057
fission-0057
fission-0057
fission-0057
fission-0057
fission-0057
fission-0057
fission-0057
fission-0057
fission-0057
fission-0057
fission-0057
fission-0057
fission-0057
fission-0084
fission-0084
fission-0084
fission-0084
fission-0084
fission-0084
fission-0084
fission-0084
fission-0084
fission-0084
fission-0084
fission-0084
fission-0084
fission-0084
fission-0084
fission-0084
fission-0084
fission-0084
fission-0084
fission-0084
fission-0084
fission-0084
fission-0084
fission-0084
fission-0084
fission-0084
fission-0084
fission-0084
fission-0084
fission-0084
fission-0084
fission-0084
fission-0062
fission-0062
fission-0062
fission-0062
fission-0062
fission-0062
fission-0062
fission-0062
fission-0062
fission-0062
fission-0062
fission-0062
fission-0062
fission-0062
fission-0062
fission-0062
fission-0062
fission-0062
fission-0062
fission-0062
fission-0062
fission-0062
fission-0062
fission-0062
fission-0062
fission-0062
fission-0062
fission-0062
fission-0062
fission-0062
fission-0062
fission-0062
fission-0063
fission-0063
fission-0063
fission-0063
fission-0063
fission-0063
fission-0063
fission-0063
fission-0063
fission-0063
fission-0063
fission-0063
fission-0063
fission-0063
fission-0063
fission-0063
fission-0063
fission-0063
fission-0063
fission-0063
fission-0063
fission-0063
fission-0063
fission-0063
fission-0063
fission-0063
fission-0063
fission-0063
fission-0063
fission-0063
fission-0063
fission-0063
fission-0064
fission-0064
fission-0064
fission-0064
fission-0064
fission-0064
fission-0064
fission-0064
fission-0064
fission-0064
fission-0064
fission-0064
fission-0064
fission-0064
fission-0064
fission-0064
fission-0064
fission-0064
fission-0064
fission-0064
fission-0064
fission-0064
fission-0064
fission-0064
fission-0064
fission-0064
fission-0064
fission-0064
fission-0064
fission-0064
fission-0064
fission-0064
fission-0067
fission-0067
fission-0067
fission-0067
fission-0067
fission-0067
fission-0067
fission-0067
fission-0067
fission-0067
fission-0067
fission-0067
fission-0067
fission-0067
fission-0067
fission-0067
fission-0067
fission-0067
fission-0067
fission-0067
fission-0067
fission-0067
fission-0067
fission-0067
fission-0067
fission-0067
fission-0067
fission-0067
fission-0067
fission-0067
fission-0067
fission-0067
fission-0082
fission-0082
fission-0082
fission-0082
fission-0082
fission-0082
fission-0082
fission-0082
fission-0082
fission-0082
fission-0082
fission-0082
fission-0082
fission-0082
fission-0082
fission-0082
fission-0082
fission-0082
fission-0082
fission-0082
fission-0082
fission-0082
fission-0082
fission-0082
fission-0082
fission-0082
fission-0082
fission-0082
fission-0082
fission-0082
fission-0082
fission-0082
fission-0079
fission-0079
fission-0079
fission-0079
fission-0079
fission-0079
fission-0079
fission-0079
fission-0079
fission-0079
fission-0079
fission-0079
fission-0079
fission-0079
fission-0079
fission-0079
fission-0079
fission-0079
fission-0079
fission-0079
fission-0079
fission-0079
fission-0079
fission-0079
fission-0079
fission-0079
fission-0079
fission-0079
fission-0079
fission-0079
fission-0079
fission-0079
fission-0059
fission-0059
fission-0059
fission-0059
fission-0059
fission-0059
fission-0059
fission-0059
fission-0059
fission-0059
fission-0059
fission-0059
fission-0059
fission-0059
fission-0059
fission-0059
fission-0059
fission-0059
fission-0059
fission-0059
fission-0059
fission-0059
fission-0059
fission-0059
fission-0059
fission-0059
fission-0059
fission-0059
fission-0059
fission-0059
fission-0059
fission-0059
fission-0060
fission-0060
fission-0060
fission-0060
fission-0060
fission-0060
fission-0060
fission-0060
fission-0060
fission-0060
fission-0060
fission-0060
fission-0060
fission-0060
fission-0060
fission-0060
fission-0060
fission-0060
fission-0060
fission-0060
fission-0060
fission-0060
fission-0060
fission-0060
fission-0060
fission-0060
fission-0060
fission-0060
fission-0060
fission-0060
fission-0060
fission-0060
fission-0073
fission-0073
fission-0073
fission-0073
fission-0073
fission-0073
fission-0073
fission-0073
fission-0073
fission-0073
fission-0073
fission-0073
fission-0073
fission-0073
fission-0073
fission-0073
fission-0073
fission-0073
fission-0073
fission-0073
fission-0073
fission-0073
fission-0073
fission-0073
fission-0073
fission-0073
fission-0073
fission-0073
fission-0073
fission-0073
fission-0073
fission-0073
fission-0078
fission-0078
fission-0078
fission-0078
fission-0078
fission-0078
fission-0078
fission-0078
fission-0078
fission-0078
fission-0078
fission-0078
fission-0078
fission-0078
fission-0078
fission-0078
fission-0078
fission-0078
fission-0078
fission-0078
fission-0078
fission-0078
fission-0078
fission-0078
fission-0078
fission-0078
fission-0078
fission-0078
fission-0078
fission-0078
fission-0078
fission-0078
fission-0080
fission-0080
fission-0080
fission-0080
fission-0080
fission-0080
fission-0080
fission-0080
fission-0080
fission-0080
fission-0080
fission-0080
fission-0080
fission-0080
fission-0080
fission-0080
fission-0080
fission-0080
fission-0080
fission-0080
fission-0080
fission-0080
fission-0080
fission-0080
fission-0080
fission-0080
fission-0080
fission-0080
fission-0080
fission-0080
fission-0080
fission-0080
fission-0076
fission-0076
fission-0076
fission-0076
fission-0076
fission-0076
fission-0076
fission-0076
fission-0076
fission-0076
fission-0076
fission-0076
fission-0076
fission-0076
fission-0076
fission-0076
fission-0076
fission-0076
fission-0076
fission-0076
fission-0076
fission-0076
fission-0076
fission-0076
fission-0076
fission-0076
fission-0076
fission-0076
fission-0076
fission-0076
fission-0076
fission-0076
fission-0081
fission-0081
fission-0081
fission-0081
fission-0081
fission-0081
fission-0081
fission-0081
fission-0081
fission-0081
fission-0081
fission-0081
fission-0081
fission-0081
fission-0081
fission-0081
fission-0081
fission-0081
fission-0081
fission-0081
fission-0081
fission-0081
fission-0081
fission-0081
fission-0081
fission-0081
fission-0081
fission-0081
fission-0081
fission-0081
fission-0081
fission-0081

The following PBS extra args (PBS_EXTRA_ARGS) will be used: -P ldrd
The following lammps extra args (LAMMPS_EXTRA_ARGS) will be used:
LAMMPS (16 Feb 2016)
#log		log.c
units           metal
dimension       3
boundary        p p p
atom_style      atomic
shell         mkdir  cfg
shell         mkdir  dump

# ----------------------- ATOM DEFINITION & Force Field -------------
lattice         fcc 3.615 #origin 0.0 0.0 0.0 orient x 1 -1 0 orient y 1 1 -2 orient z 1 1 1
Lattice spacing in x,y,z = 3.615 3.615 3.615
variable        Lx equal 65
variable        Ly equal 3
variable        Lz equal 260
variable        boxLZ equal 270
region          SYSTEM block -65 65 -3 3 -260 0 units lattice
region          BOX block -65 65 -3 3 -270 5 units lattice
create_box      1 BOX
Created orthogonal box = (-234.975 -10.845 -976.05) to (234.975 10.845 18.075)
create_atoms    1 region SYSTEM
Created 812760 atoms

delete_atoms     porosity BOX 0.01 12809
Deleted 8115 atoms, new total = 804645

#---------------------------------------------------------------------

pair_style      eam/alloy
pair_coeff  	  * * Cu01.eam.alloy Cu

#----------------------------------------------------------------------
velocity       all create 300.0 25238 mom yes rot yes dist gaussian
fix             1 all npt temp 300 300 0.1 iso 0.0 0.0 2
run      10000
  1 neighbor list requests
  update every 1 steps, delay 10 steps, check yes
Setting up Verlet run ...
  Unit style  : metal
  Current step: 0
  Time step   : 0.001
Step Temp E_pair E_mol TotEng Press Volume
0          300     -2836151            0   -2804948.5   -57.990278     10133330
Loop time of 116.592 on 512 procs for 10000 steps with 804645 atoms

unfix 1

fix            2 all nvt temp 300.0 300.0 0.1

run      10000
Setting up Verlet run ...
  Unit style  : metal
  Current step: 10000
  Time step   : 0.001
Step Temp E_pair E_mol TotEng Press
10000    299.62192   -2804637.9            0   -2773474.7   -14.136636
Loop time of 119.768 on 512 procs for 10000 steps with 804645 atoms

reset_timestep 0
unfix    2
#---------------------- DEFINE Laser GERION and GROUP ----------------
region       R1  block -75  75  INF  INF  INF  5  units box
group        G1 region R1
256903 atoms in group G1
group        G2 subtract all G1
547742 atoms in group G2

#define     temperature/pressure calculation  group
variable    x1atom atom "x>=0  &&  x<4 &&  z>-40 && z<1"     ##NEW!!!!!!!!!!!!
variable    x2atom atom "x>=-234.98  &&  x<-230.98 &&  z>-40 && z<1"
variable    x3atom atom "x>=0  &&  x<4 &&  z>-20 && z<1"
variable    x4atom atom "x>=-234.98  &&  x<-230.98 &&  z>-20 && z<1"
variable    x5atom atom "x>=196  &&  x<200 &&  z>-40 && z<1"

group       x1atom variable x1atom
393 atoms in group x1atom
group       x2atom variable x2atom
271 atoms in group x2atom
group       x3atom variable x3atom
207 atoms in group x3atom
group       x4atom variable x4atom
140 atoms in group x4atom
group       x5atom variable x5atom
286 atoms in group x5atom

compute      COM1x x1atom com
compute      COM2x x2atom com
compute      COM3x x3atom com
compute      COM4x x4atom com
compute      COM5x x5atom com

compute      COMall all com

#Temperature profile
#variable      Tprofile atom 300*(1+(step/5000)*2.5*exp(z/40))
#variable tmp equal "lz"
variable      Tprofile atom  300+600*(step/5000)*exp(z/40)*exp(-x*x/1289)

# ------------------------- SETTINGS ---------------------------------
thermo          100
thermo_style    custom step lx pxx pyy pzz temp c_COM1x[1] c_COM1x[2] c_COM1x[3] c_COM2x[1] c_COM2x[2] c_COM2x[3] c_COM3x[1] c_COM3x[2] c_COM3x[3] c_COM4x[1] c_COM4x[2] c_COM4x[3]  c_COM5x[1] c_COM5x[2] c_COM5x[3] c_COMall[1] c_COMall[2] c_COMall[3]

timestep       0.002

compute dispall all displace/atom
# ---------------- Run Laser Material Interaction --------------------
#dump          1 all custom 1000 dump/z1dump.atom id type x y z c_dispall[1]  c_dispall[2]  c_dispall[3] c_dispall[4]
#dump          2 all cfg 100 cfg/*.cfg mass type xs ys zs
#dump_modify   2 element Al

#relax for 2 PS
#fix           1 all nvt temp 300.0 300.0 0.1
#run  1000
#unfix         1

fix           1  all nve
fix           3temp  all  langevin  v_Tprofile  0  0.1  378411   #TEST ALL
run           5000
Setting up Verlet run ...
  Unit style  : metal
  Current step: 0
  Time step   : 0.002
Step Lx Pxx Pyy Pzz Temp COM1x[1] COM1x[2] COM1x[3] COM2x[1] COM2x[2] COM2x[3] COM3x[1] COM3x[2] COM3x[3] COM4x[1] COM4x[2] COM4x[3] COM5x[1] COM5x[2] COM5x[3] COMall[1 COMall[2 COMall[3
0    471.58999   -290.66398   -289.66765   -245.95456    299.97334    1.9857403  -0.87869701   -19.646179   -233.07297  -0.89056846   -19.872336    1.9820618  -0.83982429   -9.8303139   -233.05764  -0.90659735   -9.8550317    198.51076    -1.114676   -19.729852  -0.89697307  -0.90681253   -469.90546
Averages over the last 26 of 51 rows, steps 2500 to 5000:
Lx Pxx Pyy Pzz Temp COM1x[1] COM1x[2] COM1x[3] COM2x[1] COM2x[2] COM2x[3] COM3x[1] COM3x[2] COM3x[3] COM4x[1] COM4x[2] COM4x[3] COM5x[1] COM5x[2] COM5x[3] COMall[1 COMall[2 COMall[3
471.59 -195.976 -191.29 -167.107 302.674 1.95934 -0.881134 -19.595 -233.059 -0.947 -19.7986 1.91766 -0.821236 -9.69943 -233.07 -0.993027 -9.74929 198.531 -1.03808 -19.6858 -0.89868 -0.906478 -469.906
Loop time of 63.3655 on 512 procs for 5000 steps with 804645 atoms

variable  com1_x equal "c_COM1x[1]"
variable  com1_y equal "c_COM1x[2]"
variable  com1_z equal "c_COM1x[3]"
variable  com2_x equal "c_COM2x[1]"
variable  com2_y equal "c_COM2x[2]"
variable  com2_z equal "c_COM2x[3]"
variable  com3_x equal "c_COM3x[1]"
variable  com3_y equal "c_COM3x[2]"
variable  com3_z equal "c_COM3x[3]"
variable  com4_x equal "c_COM4x[1]"
variable  com4_y equal "c_COM4x[2]"
variable  com4_z equal "c_COM4x[3]"
variable  com5_x equal "c_COM5x[1]"
variable  com5_y equal "c_COM5x[2]"
variable  com5_z equal "c_COM5x[3]"
variable  comall_x equal "c_COMall[1]"
variable  comall_y equal "c_COMall[2]"
variable  comall_z equal "c_COMall[3]"

#-------------------------- Wave Propagation -------------------------
unfix        3temp
run          1000000
Setting up Verlet run ...
  Unit style  : metal
  Current step: 5000
  Time step   : 0.002
Step Lx Pxx Pyy Pzz Temp COM1x[1] COM1x[2] COM1x[3] COM2x[1] COM2x[2] COM2x[3] COM3x[1] COM3x[2] COM3x[3] COM4x[1] COM4x[2] COM4x[3] COM5x[1] COM5x[2] COM5x[3] COMall[1 COMall[2 COMall[3
5000    471.58999     -105.404   -128.43672   -125.81654    303.54516    2.0110957  -0.91957573   -19.551078    -233.0667    -0.938051   -19.827341    1.9992596  -0.89715936    -9.563949   -233.09042  -0.98789817   -9.7539853     198.5345   -1.0483241     -19.7082  -0.89823397  -0.90861401   -469.90925
Averages over the last 5001 of 10001 rows, steps 505000 to 1005000:
Lx Pxx Pyy Pzz Temp COM1x[1] COM1x[2] COM1x[3] COM2x[1] COM2x[2] COM2x[3] COM3x[1] COM3x[2] COM3x[3] COM4x[1] COM4x[2] COM4x[3] COM5x[1] COM5x[2] COM5x[3] COMall[1 COMall[2 COMall[3
471.59 -63.6273 -50.6559 -2.98259 303.754 2.78503 0.920346 -21.6879 -232.197 0.872945 -21.8164 2.76054 0.974868 -11.8626 -232.204 0.837803 -11.7656 199.398 0.751896 -21.6883 -0.000293958 0.917866 -471.885
Loop time of 12194.5 on 512 procs for 1000000 steps with 804645 atoms
