LAMMPS (16 Feb 2016)
# ------------------------ INITIALIZATION ----------------------------
echo both
#log		log.c
units           metal
dimension       3
boundary        p p p
atom_style      atomic
shell         mkdir  cfg
shell         mkdir  dump

# ----------------------- ATOM DEFINITION & Force Field -------------
lattice         fcc 3.615 #origin 0.0 0.0 0.0 orient x 1 -1 0 orient y 1 1 -2 orient z 1 1 1
Lattice spacing in x,y,z = 3.615 3.615 3.615
variable        Lx equal 65
variable        Ly equal 3
variable        Lz equal 260
variable        boxLZ equal 270
region          SYSTEM block -65 65 -3 3 -260 0 units lattice
region          BOX block -65 65 -3 3 -270 5 units lattice
create_box      1 BOX
Created orthogonal box = (-234.975 -10.845 -976.05) to (234.975 10.845 18.075)
create_atoms    1 region SYSTEM
Created 812760 atoms

delete_atoms     porosity BOX 0.01 401
Deleted 8083 atoms, new total = 804677

#---------------------------------------------------------------------

pair_style      eam/alloy
pair_coeff  	  * * Cu01.eam.alloy Cu

#----------------------------------------------------------------------
velocity       all create 300.0 28663 mom yes rot yes dist gaussian
fix             1 all npt temp 300 300 0.1 iso 0.0 0.0 2
run      10000
  1 neighbor list requests
  update every 1 steps, delay 10 steps, check yes
Step Temp E_pair E_mol TotEng Press Volume
0          300   -2836308.3            0   -2805104.5   -46.016254     10133330
Loop time of 124.672 on 512 procs for 10000 steps with 804677 atoms

unfix 1

fix            2 all nvt temp 300.0 300.0 0.1

run      10000
Step Temp E_pair E_mol TotEng Press
10000    299.75978     -2804824            0   -2773645.2   -50.291509
Loop time of 121.45 on 512 procs for 10000 steps with 804677 atoms

reset_timestep 0
unfix    2
#---------------------- DEFINE Laser GERION and GROUP ----------------
region       R1  block -75  75  INF  INF  INF  5  units box
group        G1 region R1
256916 atoms in group G1
group        G2 subtract all G1
547761 atoms in group G2

#define     temperature/pressure calculation  group
variable    x1atom atom "x>=0  &&  x<4 &&  z>-40 && z<1"     ##NEW!!!!!!!!!!!!
variable    x2atom atom "x>=-234.98  &&  x<-230.98 &&  z>-40 && z<1"
variable    x3atom atom "x>=0  &&  x<4 &&  z>-20 && z<1"
variable    x4atom atom "x>=-234.98  &&  x<-230.98 &&  z>-20 && z<1"
variable    x5atom atom "x>=196  &&  x<200 &&  z>-40 && z<1"

group       x1atom variable x1atom
285 atoms in group x1atom
group       x2atom variable x2atom
272 atoms in group x2atom
group       x3atom variable x3atom
151 atoms in group x3atom
group       x4atom variable x4atom
142 atoms in group x4atom
group       x5atom variable x5atom
283 atoms in group x5atom

compute      COM1x x1atom com
compute      COM2x x2atom com
compute      COM3x x3atom com
compute      COM4x x4atom com
compute      COM5x x5atom com

compute      COMall all com

#Temperature profile
#variable      Tprofile atom 300*(1+(step/5000)*2.5*exp(z/40))
#variable tmp equal "lz"
variable      Tprofile atom  300+600*(step/5000)*exp(z/40)*exp(-x*x/1289)

# ------------------------- SETTINGS ---------------------------------
thermo          100
thermo_style    custom step lx pxx pyy pzz temp c_COM1x[1] c_COM1x[2] c_COM1x[3] c_COM2x[1] c_COM2x[2] c_COM2x[3] c_COM3x[1] c_COM3x[2] c_COM3x[3] c_COM4x[1] c_COM4x[2] c_COM4x[3]  c_COM5x[1] c_COM5x[2] c_COM5x[3] c_COMall[1] c_COMall[2] c_COMall[3]

timestep       0.002

compute dispall all displace/atom
# ---------------- Run Laser Material Interaction --------------------
#dump          1 all custom 1000 dump/z1dump.atom id type x y z c_dispall[1]  c_dispall[2]  c_dispall[3] c_dispall[4]
#dump          2 all cfg 100 cfg/*.cfg mass type xs ys zs
#dump_modify   2 element Al

#relax for 2 PS
#fix           1 all nvt temp 300.0 300.0 0.1
#run  1000
#unfix         1

fix           1  all nve
fix           3temp  all  langevin  v_Tprofile  0  0.1  378411   #TEST ALL
run           5000
Step Lx Pxx Pyy Pzz Temp COM1x[1] COM1x[2] COM1x[3] COM2x[1] COM2x[2] COM2x[3] COM3x[1] COM3x[2] COM3x[3] COM4x[1] COM4x[2] COM4x[3] COM5x[1] COM5x[2] COM5x[3] COMall[1 COMall[2 COMall[3
0    471.60075      -473.22   -454.94879   -423.86339    299.71201    2.5282545  -0.95741485   -19.608983   -233.13757  -0.89983811   -19.745051    2.5004803  -0.93559711    -9.798666   -233.12216  -0.83542988   -9.6975901    198.51298  -0.88899619   -19.854672  -0.90651765  -0.90734942   -469.89511
Averages over the last 26 of 51 rows, steps 2500 to 5000:
Lx Pxx Pyy Pzz Temp COM1x[1] COM1x[2] COM1x[3] COM2x[1] COM2x[2] COM2x[3] COM3x[1] COM3x[2] COM3x[3] COM4x[1] COM4x[2] COM4x[3] COM5x[1] COM5x[2] COM5x[3] COMall[1 COMall[2 COMall[3
471.601 -315.528 -294.037 -290.258 302.767 2.5612 -0.940133 -19.57 -233.109 -0.918191 -19.7253 2.52634 -0.950177 -9.71509 -233.106 -0.865409 -9.70873 198.52 -0.82353 -19.8313 -0.908221 -0.907023 -469.896
Loop time of 63.0615 on 512 procs for 5000 steps with 804677 atoms

variable  com1_x equal "c_COM1x[1]"
variable  com1_y equal "c_COM1x[2]"
variable  com1_z equal "c_COM1x[3]"
variable  com2_x equal "c_COM2x[1]"
variable  com2_y equal "c_COM2x[2]"
variable  com2_z equal "c_COM2x[3]"
variable  com3_x equal "c_COM3x[1]"
variable  com3_y equal "c_COM3x[2]"
variable  com3_z equal "c_COM3x[3]"
variable  com4_x equal "c_COM4x[1]"
variable  com4_y equal "c_COM4x[2]"
variable  com4_z equal "c_COM4x[3]"
variable  com5_x equal "c_COM5x[1]"
variable  com5_y equal "c_COM5x[2]"
variable  com5_z equal "c_COM5x[3]"
variable  comall_x equal "c_COMall[1]"
variable  comall_y equal "c_COMall[2]"
variable  comall_z equal "c_COMall[3]"

#-------------------------- Wave Propagation -------------------------
unfix        3temp
run          1000000
Step Lx Pxx Pyy Pzz Temp COM1x[1] COM1x[2] COM1x[3] COM2x[1] COM2x[2] COM2x[3] COM3x[1] COM3x[2] COM3x[3] COM4x[1] COM4x[2] COM4x[3] COM5x[1] COM5x[2] COM5x[3] COMall[1 COMall[2 COMall[3
5000    471.60075   -274.24091   -221.60862   -234.80705    303.24154    2.6069661  -0.92785267   -19.555691   -233.12463  -0.91054496   -19.723911    2.5335301  -0.99029803    -9.683878   -233.14046  -0.84026977   -9.6930562    198.53044  -0.83259195   -19.862877  -0.90783238  -0.90909657   -469.89868
Averages over the last 18 of 35 rows, steps 6700 to 8400:
Lx Pxx Pyy Pzz Temp COM1x[1] COM1x[2] COM1x[3] COM2x[1] COM2x[2] COM2x[3] COM3x[1] COM3x[2] COM3x[3] COM4x[1] COM4x[2] COM4x[3] COM5x[1] COM5x[2] COM5x[3] COMall[1 COMall[2 COMall[3
471.601 -282.874 -276.724 -268.029 303.293 2.58319 -0.888469 -19.3406 -233.141 -0.775361 -19.7793 2.55842 -0.888113 -9.47418 -233.126 -0.696223 -9.76098 198.476 -0.763444 -19.8682 -0.895008 -0.908551 -469.915
   11200    471.56228    71.681814    58.208.80781    303.29865    2.6721076  -0.88518812   -19.555776   -233.06114  -0.87061926   -20.070008    2.6266882  -0.86384842   -9.7163875   -233.07898  -0.80950825   -10.034316    198.65674  -0.84176243   -20.050603  -0.87665204  -0.90776968   -469.93902
   17800    471.56228    279.70518    280.15867    393.74921    303.92718    2.1468678  -0.92346078   -19.614458   -233.01212  -   -19.996431    2.6669663  -0.86742888   -9.9761434   -232.94759  -0.78290017   -9.9969723    198.65848  -0.82194418   -19.993863  -0.84346007  -0.90635719   -469.98195
   39000    471.60075    189.36403     187.3632    322.18326    303.33737     2.688826  -0.95824002    -19.85245   -232.92701  -0.89406001   -20.087065      2.63356  -0.9538106-0.79189046    -9.868364   -232.88837  -0.92969608   -9.8631755    198.28858  -0.91223976   -20.204348  -0.86272584  -0.90172744   -469.88685
   40300    471.56228    278.59822    276.55779    346.85871    303.81093     2.063684  -0.89659048   -19.435767   -232.87922  -0.94245089   -19.788233    2.0043718    -0.829651   -9.9200551    -232.9253  -0.97476716   -9.7585785    19-0.7782851    -20.04827  -0.73030561  -0.90154187   -470.12833
   49600    471.60075    -345.4206   -333.89872   -368.08662    303.36413    2.8334774   -0.9575624   -19.883277   -232.84896  -0.86308615   -19.973493    2.8283831  -0.96581278   -10.027201-9.4722588    -232.9841  -0.88043748    -9.548466    198.19764  -0.83009236   -20.015374  -0.84029265  -0.89927995   -469.85442
   60200    471.56228    249.41662    288.09124    348.22723     304.0883    2.1228549  -0.86570673   -19.319891   -233.02497  -0.98324663   -20.009517    2.0883393  -0.83022106   -9.7232.76536 233.03504  -0.99945217   -9.9826418    198.19653   -0.9631817   -20.319356  -0.81785946  -0.89683246     -469.822
   77400    471.56228    169.68377    165.64704    241.26676    303.26361    2.2085407  -0.87804093   -19.384653   -232.89853  -0.92237868   -19.620468     2.153146  -0.83576324   -9.8199583   -232.88818  -0.91286425   -9.5954257    198.29283  -0.91688484   -20.024223  -0.78145843  -   -470.36   -469.76939
   88000    471.56228   -111.64418   -112.89484   -148.45007     303.6531    2.1985613  -0.95568117   -19.038268   -232.85773  -0.98733578   -19.514307    2.1504347  -0.90829303   -9.4690473    -232.8575   -1.0104842   -9.5026367    198.30108  -0.89631761   -19.879389  -0.75902524  -0.89041356   -
   92000    471.56228   -298.75157   -319.82127   -430.88338    303.19578    2.1500436  -0.96619373   -19.174333   -232.93674  -0.91318584   -19.356354     2.073387   -0.9119894   -9.5955915   -232.99596  -0.94457692    -9.307.96436  -0.85012309   -20.374559  -0.47030181  -0.89047735   -470.46466
  126500    471.56228    305.63317    304.32555    383.27497    303.77717    2.2139247  -0.86985448   -19.262437   -2-0.7688692 -1.0147088   -19.534397    2.1656209  -0.81348839    -9.689613   -232.93745   -1.0451157   -9.4809233    198.25333  -0.93773259    -19.92174  -0.67754619  -0.88152408   -469.61919
  164900    471.56228    129.84592     156.4286    241.28809    303.97993    2.4067086  -0.86174289   -19.080189    -232.7694  -0.97871615   -19.302452    2.3378749  -0.81591693   -9.5119761    -232.7484   -1.0122216   -9.2987257    198.32703  -   -20.905   -19.694865  -0.59627877   -0.8726577   -469.50173
  175500    471.56228   -92.675119   -133.27057   -162.47475    303.79354    2.3706287  -0.90357897    -18.87142   -232.67955  -0.86715663   -19.326816    2.2861019  -0.85206661   -9.3084797   -232.64966  -0.93479984    -9.316511     198.4847  -0.85932571   --0.0503730 -0.57384558   -0.8702102   -469.46931
Loop time of 12544.5 on 512 procs for 1000000 steps with 804528 atoms

06

tal wall time: 3:37:57
