fission-0370
fission-0370
fission-0370
fission-0370
fission-0370
fission-0370
fission-0370
fission-0370
fission-0370
fission-0370
fission-0370
fission-0370
fission-0370
fission-0370
fission-0370
fission-0370
fission-0370
fission-0370
fission-0370
fission-0370
fission-0370
fission-0370
fission-0370
fission-0370
fission-0370
fission-0370
fission-0370
fission-0370
fission-0370
fission-0370
fission-0370
fission-0370
fission-0374
fission-0374
fission-0374
fission-0374
fission-0374
fission-0374
fission-0374
fission-0374
fission-0374
fission-0374
fission-0374
fission-0374
fission-0374
fission-0374
fission-0374
fission-0374
fission-0374
fission-0374
fission-0374
fission-0374
fission-0374
fission-0374
fission-0374
fission-0374
fission-0374
fission-0374
fission-0374
fission-0374
fission-0374
fission-0374
fission-0374
fission-0374
fission-0158
fission-0158
fission-0158
fission-0158
fission-0158
fission-0158
fission-0158
fission-0158
fission-0158
fission-0158
fission-0158
fission-0158
fission-0158
fission-0158
fission-0158
fission-0158
fission-0158
fission-0158
fission-0158
fission-0158
fission-0158
fission-0158
fission-0158
fission-0158
fission-0158
fission-0158
fission-0158
fission-0158
fission-0158
fission-0158
fission-0158
fission-0158
fission-0304
fission-0304
fission-0304
fission-0304
fission-0304
fission-0304
fission-0304
fission-0304
fission-0304
fission-0304
fission-0304
fission-0304
fission-0304
fission-0304
fission-0304
fission-0304
fission-0304
fission-0304
fission-0304
fission-0304
fission-0304
fission-0304
fission-0304
fission-0304
fission-0304
fission-0304
fission-0304
fission-0304
fission-0304
fission-0304
fission-0304
fission-0304
fission-0305
fission-0305
fission-0305
fission-0305
fission-0305
fission-0305
fission-0305
fission-0305
fission-0305
fission-0305
fission-0305
fission-0305
fission-0305
fission-0305
fission-0305
fission-0305
fission-0305
fission-0305
fission-0305
fission-0305
fission-0305
fission-0305
fission-0305
fission-0305
fission-0305
fission-0305
fission-0305
fission-0305
fission-0305
fission-0305
fission-0305
fission-0305
fission-0356
fission-0356
fission-0356
fission-0356
fission-0356
fission-0356
fission-0356
fission-0356
fission-0356
fission-0356
fission-0356
fission-0356
fission-0356
fission-0356
fission-0356
fission-0356
fission-0356
fission-0356
fission-0356
fission-0356
fission-0356
fission-0356
fission-0356
fission-0356
fission-0356
fission-0356
fission-0356
fission-0356
fission-0356
fission-0356
fission-0356
fission-0356
fission-0071
fission-0071
fission-0071
fission-0071
fission-0071
fission-0071
fission-0071
fission-0071
fission-0071
fission-0071
fission-0071
fission-0071
fission-0071
fission-0071
fission-0071
fission-0071
fission-0071
fission-0071
fission-0071
fission-0071
fission-0071
fission-0071
fission-0071
fission-0071
fission-0071
fission-0071
fission-0071
fission-0071
fission-0071
fission-0071
fission-0071
fission-0071
fission-0066
fission-0066
fission-0066
fission-0066
fission-0066
fission-0066
fission-0066
fission-0066
fission-0066
fission-0066
fission-0066
fission-0066
fission-0066
fission-0066
fission-0066
fission-0066
fission-0066
fission-0066
fission-0066
fission-0066
fission-0066
fission-0066
fission-0066
fission-0066
fission-0066
fission-0066
fission-0066
fission-0066
fission-0066
fission-0066
fission-0066
fission-0066
fission-0142
fission-0142
fission-0142
fission-0142
fission-0142
fission-0142
fission-0142
fission-0142
fission-0142
fission-0142
fission-0142
fission-0142
fission-0142
fission-0142
fission-0142
fission-0142
fission-0142
fission-0142
fission-0142
fission-0142
fission-0142
fission-0142
fission-0142
fission-0142
fission-0142
fission-0142
fission-0142
fission-0142
fission-0142
fission-0142
fission-0142
fission-0142
fission-0165
fission-0165
fission-0165
fission-0165
fission-0165
fission-0165
fission-0165
fission-0165
fission-0165
fission-0165
fission-0165
fission-0165
fission-0165
fission-0165
fission-0165
fission-0165
fission-0165
fission-0165
fission-0165
fission-0165
fission-0165
fission-0165
fission-0165
fission-0165
fission-0165
fission-0165
fission-0165
fission-0165
fission-0165
fission-0165
fission-0165
fission-0165
fission-0160
fission-0160
fission-0160
fission-0160
fission-0160
fission-0160
fission-0160
fission-0160
fission-0160
fission-0160
fission-0160
fission-0160
fission-0160
fission-0160
fission-0160
fission-0160
fission-0160
fission-0160
fission-0160
fission-0160
fission-0160
fission-0160
fission-0160
fission-0160
fission-0160
fission-0160
fission-0160
fission-0160
fission-0160
fission-0160
fission-0160
fission-0160
fission-0347
fission-0347
fission-0347
fission-0347
fission-0347
fission-0347
fission-0347
fission-0347
fission-0347
fission-0347
fission-0347
fission-0347
fission-0347
fission-0347
fission-0347
fission-0347
fission-0347
fission-0347
fission-0347
fission-0347
fission-0347
fission-0347
fission-0347
fission-0347
fission-0347
fission-0347
fission-0347
fission-0347
fission-0347
fission-0347
fission-0347
fission-0347
fission-0161
fission-0161
fission-0161
fission-0161
fission-0161
fission-0161
fission-0161
fission-0161
fission-0161
fission-0161
fission-0161
fission-0161
fission-0161
fission-0161
fission-0161
fission-0161
fission-0161
fission-0161
fission-0161
fission-0161
fission-0161
fission-0161
fission-0161
fission-0161
fission-0161
fission-0161
fission-0161
fission-0161
fission-0161
fission-0161
fission-0161
fission-0161
fission-0391
fission-0391
fission-0391
fission-0391
fission-0391
fission-0391
fission-0391
fission-0391
fission-0391
fission-0391
fission-0391
fission-0391
fission-0391
fission-0391
fission-0391
fission-0391
fission-0391
fission-0391
fission-0391
fission-0391
fission-0391
fission-0391
fission-0391
fission-0391
fission-0391
fission-0391
fission-0391
fission-0391
fission-0391
fission-0391
fission-0391
fission-0391
fission-0143
fission-0143
fission-0143
fission-0143
fission-0143
fission-0143
fission-0143
fission-0143
fission-0143
fission-0143
fission-0143
fission-0143
fission-0143
fission-0143
fission-0143
fission-0143
fission-0143
fission-0143
fission-0143
fission-0143
fission-0143
fission-0143
fission-0143
fission-0143
fission-0143
fission-0143
fission-0143
fission-0143
fission-0143
fission-0143
fission-0143
fission-0143
fission-0164
fission-0164
fission-0164
fission-0164
fission-0164
fission-0164
fission-0164
fission-0164
fission-0164
fission-0164
fission-0164
fission-0164
fission-0164
fission-0164
fission-0164
fission-0164
fission-0164
fission-0164
fission-0164
fission-0164
fission-0164
fission-0164
fission-0164
fission-0164
fission-0164
fission-0164
fission-0164
fission-0164
fission-0164
fission-0164
fission-0164
fission-0164

The following PBS extra args (PBS_EXTRA_ARGS) will be used: -P ldrd
The following lammps extra args (LAMMPS_EXTRA_ARGS) will be used:
LAMMPS (16 Feb 2016)
#log		log.c
units           metal
dimension       3
boundary        p p p
atom_style      atomic
shell         mkdir  cfg
shell         mkdir  dump

# ----------------------- ATOM DEFINITION & Force Field -------------
lattice         fcc 3.615 #origin 0.0 0.0 0.0 orient x 1 -1 0 orient y 1 1 -2 orient z 1 1 1
Lattice spacing in x,y,z = 3.615 3.615 3.615
variable        Lx equal 65
variable        Ly equal 3
variable        Lz equal 260
variable        boxLZ equal 270
region          SYSTEM block -65 65 -3 3 -260 0 units lattice
region          BOX block -65 65 -3 3 -270 5 units lattice
create_box      1 BOX
Created orthogonal box = (-234.975 -10.845 -976.05) to (234.975 10.845 18.075)
create_atoms    1 region SYSTEM
Created 812760 atoms

delete_atoms     porosity BOX 0.0005 12240
Deleted 373 atoms, new total = 812387

#---------------------------------------------------------------------

pair_style      eam/alloy
pair_coeff  	  * * Cu01.eam.alloy Cu

#----------------------------------------------------------------------
velocity       all create 300.0 13967 mom yes rot yes dist gaussian
fix             1 all npt temp 300 300 0.1 iso 0.0 0.0 2
run      10000
  1 neighbor list requests
  update every 1 steps, delay 10 steps, check yes
Setting up Verlet run ...
  Unit style  : metal
  Current step: 0
  Time step   : 0.001
Step Temp E_pair E_mol TotEng Press Volume
0          300   -2873645.7            0     -2842143    2861.3286     10133330
Loop time of 129.676 on 512 procs for 10000 steps with 812387 atoms

unfix 1

fix            2 all nvt temp 300.0 300.0 0.1

run      10000
Setting up Verlet run ...
  Unit style  : metal
  Current step: 10000
  Time step   : 0.001
Step Temp E_pair E_mol TotEng Press
10000    299.81837   -2841546.4            0   -2810062.7    -1.679284
Loop time of 123.245 on 512 procs for 10000 steps with 812387 atoms

reset_timestep 0
unfix    2
#---------------------- DEFINE Laser GERION and GROUP ----------------
region       R1  block -75  75  INF  INF  INF  5  units box
group        G1 region R1
259340 atoms in group G1
group        G2 subtract all G1
553047 atoms in group G2

#define     temperature/pressure calculation  group
variable    x1atom atom "x>=0  &&  x<4 &&  z>-40 && z<1"     ##NEW!!!!!!!!!!!!
variable    x2atom atom "x>=-234.98  &&  x<-230.98 &&  z>-40 && z<1"
variable    x3atom atom "x>=0  &&  x<4 &&  z>-20 && z<1"
variable    x4atom atom "x>=-234.98  &&  x<-230.98 &&  z>-20 && z<1"
variable    x5atom atom "x>=196  &&  x<200 &&  z>-40 && z<1"

group       x1atom variable x1atom
319 atoms in group x1atom
group       x2atom variable x2atom
276 atoms in group x2atom
group       x3atom variable x3atom
166 atoms in group x3atom
group       x4atom variable x4atom
144 atoms in group x4atom
group       x5atom variable x5atom
371 atoms in group x5atom

compute      COM1x x1atom com
compute      COM2x x2atom com
compute      COM3x x3atom com
compute      COM4x x4atom com
compute      COM5x x5atom com

compute      COMall all com

#Temperature profile
#variable      Tprofile atom 300*(1+(step/5000)*2.5*exp(z/40))
#variable tmp equal "lz"
variable      Tprofile atom  300+600*(step/5000)*exp(z/40)*exp(-x*x/1289)

# ------------------------- SETTINGS ---------------------------------
thermo          100
thermo_style    custom step lx pxx pyy pzz temp c_COM1x[1] c_COM1x[2] c_COM1x[3] c_COM2x[1] c_COM2x[2] c_COM2x[3] c_COM3x[1] c_COM3x[2] c_COM3x[3] c_COM4x[1] c_COM4x[2] c_COM4x[3]  c_COM5x[1] c_COM5x[2] c_COM5x[3] c_COMall[1] c_COMall[2] c_COMall[3]

timestep       0.002

compute dispall all displace/atom
# ---------------- Run Laser Material Interaction --------------------
#dump          1 all custom 1000 dump/z1dump.atom id type x y z c_dispall[1]  c_dispall[2]  c_dispall[3] c_dispall[4]
#dump          2 all cfg 100 cfg/*.cfg mass type xs ys zs
#dump_modify   2 element Al

#relax for 2 PS
#fix           1 all nvt temp 300.0 300.0 0.1
#run  1000
#unfix         1

fix           1  all nve
fix           3temp  all  langevin  v_Tprofile  0  0.1  378411   #TEST ALL
run           5000
Setting up Verlet run ...
  Unit style  : metal
  Current step: 0
  Time step   : 0.002
Step Lx Pxx Pyy Pzz Temp COM1x[1] COM1x[2] COM1x[3] COM2x[1] COM2x[2] COM2x[3] COM3x[1] COM3x[2] COM3x[3] COM4x[1] COM4x[2] COM4x[3] COM5x[1] COM5x[2] COM5x[3] COMall[1 COMall[2 COMall[3
0    472.05811   -509.47074   -489.68875    -498.3169    299.74539     2.324976   -1.0943398   -19.439628   -233.33664  -0.85648778   -19.362699    2.3136496   -1.0801234   -9.4729597   -233.35184  -0.88653451   -9.3848775    198.08165  -0.88698565   -19.161523  -0.90839965  -0.90769342    -469.9103
Averages over the last 26 of 51 rows, steps 2500 to 5000:
Lx Pxx Pyy Pzz Temp COM1x[1] COM1x[2] COM1x[3] COM2x[1] COM2x[2] COM2x[3] COM3x[1] COM3x[2] COM3x[3] COM4x[1] COM4x[2] COM4x[3] COM5x[1] COM5x[2] COM5x[3] COMall[1 COMall[2 COMall[3
472.058 -342.9 -340.137 -362.515 302.744 2.33175 -1.10429 -19.3937 -233.36 -0.878065 -19.326 2.31955 -1.10162 -9.37555 -233.378 -0.889711 -9.32361 198.059 -0.841942 -19.203 -0.910015 -0.907457 -469.911
Loop time of 64.691 on 512 procs for 5000 steps with 812387 atoms

variable  com1_x equal "c_COM1x[1]"
variable  com1_y equal "c_COM1x[2]"
variable  com1_z equal "c_COM1x[3]"
variable  com2_x equal "c_COM2x[1]"
variable  com2_y equal "c_COM2x[2]"
variable  com2_z equal "c_COM2x[3]"
variable  com3_x equal "c_COM3x[1]"
variable  com3_y equal "c_COM3x[2]"
variable  com3_z equal "c_COM3x[3]"
variable  com4_x equal "c_COM4x[1]"
variable  com4_y equal "c_COM4x[2]"
variable  com4_z equal "c_COM4x[3]"
variable  com5_x equal "c_COM5x[1]"
variable  com5_y equal "c_COM5x[2]"
variable  com5_z equal "c_COM5x[3]"
variable  comall_x equal "c_COMall[1]"
variable  comall_y equal "c_COMall[2]"
variable  comall_z equal "c_COMall[3]"

#-------------------------- Wave Propagation -------------------------
unfix        3temp
run          1000000
Setting up Verlet run ...
  Unit style  : metal
  Current step: 5000
  Time step   : 0.002
Step Lx Pxx Pyy Pzz Temp COM1x[1] COM1x[2] COM1x[3] COM2x[1] COM2x[2] COM2x[3] COM3x[1] COM3x[2] COM3x[3] COM4x[1] COM4x[2] COM4x[3] COM5x[1] COM5x[2] COM5x[3] COMall[1 COMall[2 COMall[3
5000    472.05811   -307.49009   -281.41212   -293.02541    303.17484    2.3385969   -1.1210866   -19.360739   -233.38707  -0.87657438   -19.323546     2.311745   -1.1455048   -9.3269871   -233.38644  -0.89338449   -9.3137014    198.06462  -0.86279283   -19.217745  -0.90937467  -0.90919533   -469.91394
Averages over the last 5001 of 10001 rows, steps 505000 to 1005000:
Lx Pxx Pyy Pzz Temp COM1x[1] COM1x[2] COM1x[3] COM2x[1] COM2x[2] COM2x[3] COM3x[1] COM3x[2] COM3x[3] COM4x[1] COM4x[2] COM4x[3] COM5x[1] COM5x[2] COM5x[3] COMall[1 COMall[2 COMall[3
472.058 -77.5688 -70.3676 -4.44832 303.437 7.56135 1.23548 -18.8484 -228.102 1.38043 -18.6988 7.56757 1.23843 -8.87968 -228.102 1.38049 -8.70887 203.317 1.38265 -18.5397 4.2963 1.38081 -469.207
Loop time of 12392 on 512 procs for 1000000 steps with 812387 atoms
