fission-0297
fission-0297
fission-0297
fission-0297
fission-0297
fission-0297
fission-0297
fission-0297
fission-0297
fission-0297
fission-0297
fission-0297
fission-0297
fission-0297
fission-0297
fission-0297
fission-0297
fission-0297
fission-0297
fission-0297
fission-0297
fission-0297
fission-0297
fission-0297
fission-0297
fission-0297
fission-0297
fission-0297
fission-0297
fission-0297
fission-0297
fission-0297
fission-0298
fission-0298
fission-0298
fission-0298
fission-0298
fission-0298
fission-0298
fission-0298
fission-0298
fission-0298
fission-0298
fission-0298
fission-0298
fission-0298
fission-0298
fission-0298
fission-0298
fission-0298
fission-0298
fission-0298
fission-0298
fission-0298
fission-0298
fission-0298
fission-0298
fission-0298
fission-0298
fission-0298
fission-0298
fission-0298
fission-0298
fission-0298
fission-0306
fission-0306
fission-0306
fission-0306
fission-0306
fission-0306
fission-0306
fission-0306
fission-0306
fission-0306
fission-0306
fission-0306
fission-0306
fission-0306
fission-0306
fission-0306
fission-0306
fission-0306
fission-0306
fission-0306
fission-0306
fission-0306
fission-0306
fission-0306
fission-0306
fission-0306
fission-0306
fission-0306
fission-0306
fission-0306
fission-0306
fission-0306
fission-0351
fission-0351
fission-0351
fission-0351
fission-0351
fission-0351
fission-0351
fission-0351
fission-0351
fission-0351
fission-0351
fission-0351
fission-0351
fission-0351
fission-0351
fission-0351
fission-0351
fission-0351
fission-0351
fission-0351
fission-0351
fission-0351
fission-0351
fission-0351
fission-0351
fission-0351
fission-0351
fission-0351
fission-0351
fission-0351
fission-0351
fission-0351
fission-0068
fission-0068
fission-0068
fission-0068
fission-0068
fission-0068
fission-0068
fission-0068
fission-0068
fission-0068
fission-0068
fission-0068
fission-0068
fission-0068
fission-0068
fission-0068
fission-0068
fission-0068
fission-0068
fission-0068
fission-0068
fission-0068
fission-0068
fission-0068
fission-0068
fission-0068
fission-0068
fission-0068
fission-0068
fission-0068
fission-0068
fission-0068
fission-0245
fission-0245
fission-0245
fission-0245
fission-0245
fission-0245
fission-0245
fission-0245
fission-0245
fission-0245
fission-0245
fission-0245
fission-0245
fission-0245
fission-0245
fission-0245
fission-0245
fission-0245
fission-0245
fission-0245
fission-0245
fission-0245
fission-0245
fission-0245
fission-0245
fission-0245
fission-0245
fission-0245
fission-0245
fission-0245
fission-0245
fission-0245
fission-0360
fission-0360
fission-0360
fission-0360
fission-0360
fission-0360
fission-0360
fission-0360
fission-0360
fission-0360
fission-0360
fission-0360
fission-0360
fission-0360
fission-0360
fission-0360
fission-0360
fission-0360
fission-0360
fission-0360
fission-0360
fission-0360
fission-0360
fission-0360
fission-0360
fission-0360
fission-0360
fission-0360
fission-0360
fission-0360
fission-0360
fission-0360
fission-0214
fission-0214
fission-0214
fission-0214
fission-0214
fission-0214
fission-0214
fission-0214
fission-0214
fission-0214
fission-0214
fission-0214
fission-0214
fission-0214
fission-0214
fission-0214
fission-0214
fission-0214
fission-0214
fission-0214
fission-0214
fission-0214
fission-0214
fission-0214
fission-0214
fission-0214
fission-0214
fission-0214
fission-0214
fission-0214
fission-0214
fission-0214
fission-0197
fission-0197
fission-0197
fission-0197
fission-0197
fission-0197
fission-0197
fission-0197
fission-0197
fission-0197
fission-0197
fission-0197
fission-0197
fission-0197
fission-0197
fission-0197
fission-0197
fission-0197
fission-0197
fission-0197
fission-0197
fission-0197
fission-0197
fission-0197
fission-0197
fission-0197
fission-0197
fission-0197
fission-0197
fission-0197
fission-0197
fission-0197
fission-0242
fission-0242
fission-0242
fission-0242
fission-0242
fission-0242
fission-0242
fission-0242
fission-0242
fission-0242
fission-0242
fission-0242
fission-0242
fission-0242
fission-0242
fission-0242
fission-0242
fission-0242
fission-0242
fission-0242
fission-0242
fission-0242
fission-0242
fission-0242
fission-0242
fission-0242
fission-0242
fission-0242
fission-0242
fission-0242
fission-0242
fission-0242
fission-0216
fission-0216
fission-0216
fission-0216
fission-0216
fission-0216
fission-0216
fission-0216
fission-0216
fission-0216
fission-0216
fission-0216
fission-0216
fission-0216
fission-0216
fission-0216
fission-0216
fission-0216
fission-0216
fission-0216
fission-0216
fission-0216
fission-0216
fission-0216
fission-0216
fission-0216
fission-0216
fission-0216
fission-0216
fission-0216
fission-0216
fission-0216
fission-0077
fission-0077
fission-0077
fission-0077
fission-0077
fission-0077
fission-0077
fission-0077
fission-0077
fission-0077
fission-0077
fission-0077
fission-0077
fission-0077
fission-0077
fission-0077
fission-0077
fission-0077
fission-0077
fission-0077
fission-0077
fission-0077
fission-0077
fission-0077
fission-0077
fission-0077
fission-0077
fission-0077
fission-0077
fission-0077
fission-0077
fission-0077
fission-0255
fission-0255
fission-0255
fission-0255
fission-0255
fission-0255
fission-0255
fission-0255
fission-0255
fission-0255
fission-0255
fission-0255
fission-0255
fission-0255
fission-0255
fission-0255
fission-0255
fission-0255
fission-0255
fission-0255
fission-0255
fission-0255
fission-0255
fission-0255
fission-0255
fission-0255
fission-0255
fission-0255
fission-0255
fission-0255
fission-0255
fission-0255
fission-0282
fission-0282
fission-0282
fission-0282
fission-0282
fission-0282
fission-0282
fission-0282
fission-0282
fission-0282
fission-0282
fission-0282
fission-0282
fission-0282
fission-0282
fission-0282
fission-0282
fission-0282
fission-0282
fission-0282
fission-0282
fission-0282
fission-0282
fission-0282
fission-0282
fission-0282
fission-0282
fission-0282
fission-0282
fission-0282
fission-0282
fission-0282
fission-0264
fission-0264
fission-0264
fission-0264
fission-0264
fission-0264
fission-0264
fission-0264
fission-0264
fission-0264
fission-0264
fission-0264
fission-0264
fission-0264
fission-0264
fission-0264
fission-0264
fission-0264
fission-0264
fission-0264
fission-0264
fission-0264
fission-0264
fission-0264
fission-0264
fission-0264
fission-0264
fission-0264
fission-0264
fission-0264
fission-0264
fission-0264
fission-0270
fission-0270
fission-0270
fission-0270
fission-0270
fission-0270
fission-0270
fission-0270
fission-0270
fission-0270
fission-0270
fission-0270
fission-0270
fission-0270
fission-0270
fission-0270
fission-0270
fission-0270
fission-0270
fission-0270
fission-0270
fission-0270
fission-0270
fission-0270
fission-0270
fission-0270
fission-0270
fission-0270
fission-0270
fission-0270
fission-0270
fission-0270

The following PBS extra args (PBS_EXTRA_ARGS) will be used: -P ldrd
The following lammps extra args (LAMMPS_EXTRA_ARGS) will be used:
LAMMPS (16 Feb 2016)
#log		log.c
units           metal
dimension       3
boundary        p p p
atom_style      atomic
shell         mkdir  cfg
shell         mkdir  dump

# ----------------------- ATOM DEFINITION & Force Field -------------
lattice         fcc 3.615 #origin 0.0 0.0 0.0 orient x 1 -1 0 orient y 1 1 -2 orient z 1 1 1
Lattice spacing in x,y,z = 3.615 3.615 3.615
variable        Lx equal 65
variable        Ly equal 3
variable        Lz equal 260
variable        boxLZ equal 270
region          SYSTEM block -65 65 -3 3 -260 0 units lattice
region          BOX block -65 65 -3 3 -270 5 units lattice
create_box      1 BOX
Created orthogonal box = (-234.975 -10.845 -976.05) to (234.975 10.845 18.075)
create_atoms    1 region SYSTEM
Created 812760 atoms

delete_atoms     porosity BOX 0.001 4607
Deleted 837 atoms, new total = 811923

#---------------------------------------------------------------------

pair_style      eam/alloy
pair_coeff  	  * * Cu01.eam.alloy Cu

#----------------------------------------------------------------------
velocity       all create 300.0 30907 mom yes rot yes dist gaussian
fix             1 all npt temp 300 300 0.1 iso 0.0 0.0 2
run      10000
  1 neighbor list requests
  update every 1 steps, delay 10 steps, check yes
Setting up Verlet run ...
  Unit style  : metal
  Current step: 0
  Time step   : 0.001
Step Temp E_pair E_mol TotEng Press Volume
0          300     -2871395            0   -2839910.2     2684.685     10133330
Loop time of 127.475 on 512 procs for 10000 steps with 811923 atoms

unfix 1

fix            2 all nvt temp 300.0 300.0 0.1

run      10000
Setting up Verlet run ...
  Unit style  : metal
  Current step: 10000
  Time step   : 0.001
Step Temp E_pair E_mol TotEng Press
10000    300.30442   -2839299.3            0   -2807782.6   -18.919127
Loop time of 122.44 on 512 procs for 10000 steps with 811923 atoms

reset_timestep 0
unfix    2
#---------------------- DEFINE Laser GERION and GROUP ----------------
region       R1  block -75  75  INF  INF  INF  5  units box
group        G1 region R1
259187 atoms in group G1
group        G2 subtract all G1
552736 atoms in group G2

#define     temperature/pressure calculation  group
variable    x1atom atom "x>=0  &&  x<4 &&  z>-40 && z<1"     ##NEW!!!!!!!!!!!!
variable    x2atom atom "x>=-234.98  &&  x<-230.98 &&  z>-40 && z<1"
variable    x3atom atom "x>=0  &&  x<4 &&  z>-20 && z<1"
variable    x4atom atom "x>=-234.98  &&  x<-230.98 &&  z>-20 && z<1"
variable    x5atom atom "x>=196  &&  x<200 &&  z>-40 && z<1"

group       x1atom variable x1atom
368 atoms in group x1atom
group       x2atom variable x2atom
274 atoms in group x2atom
group       x3atom variable x3atom
195 atoms in group x3atom
group       x4atom variable x4atom
143 atoms in group x4atom
group       x5atom variable x5atom
378 atoms in group x5atom

compute      COM1x x1atom com
compute      COM2x x2atom com
compute      COM3x x3atom com
compute      COM4x x4atom com
compute      COM5x x5atom com

compute      COMall all com

#Temperature profile
#variable      Tprofile atom 300*(1+(step/5000)*2.5*exp(z/40))
#variable tmp equal "lz"
variable      Tprofile atom  300+600*(step/5000)*exp(z/40)*exp(-x*x/1289)

# ------------------------- SETTINGS ---------------------------------
thermo          100
thermo_style    custom step lx pxx pyy pzz temp c_COM1x[1] c_COM1x[2] c_COM1x[3] c_COM2x[1] c_COM2x[2] c_COM2x[3] c_COM3x[1] c_COM3x[2] c_COM3x[3] c_COM4x[1] c_COM4x[2] c_COM4x[3]  c_COM5x[1] c_COM5x[2] c_COM5x[3] c_COMall[1] c_COMall[2] c_COMall[3]

timestep       0.002

compute dispall all displace/atom
# ---------------- Run Laser Material Interaction --------------------
#dump          1 all custom 1000 dump/z1dump.atom id type x y z c_dispall[1]  c_dispall[2]  c_dispall[3] c_dispall[4]
#dump          2 all cfg 100 cfg/*.cfg mass type xs ys zs
#dump_modify   2 element Al

#relax for 2 PS
#fix           1 all nvt temp 300.0 300.0 0.1
#run  1000
#unfix         1

fix           1  all nve
fix           3temp  all  langevin  v_Tprofile  0  0.1  378411   #TEST ALL
run           5000
Setting up Verlet run ...
  Unit style  : metal
  Current step: 0
  Time step   : 0.002
Step Lx Pxx Pyy Pzz Temp COM1x[1] COM1x[2] COM1x[3] COM2x[1] COM2x[2] COM2x[3] COM3x[1] COM3x[2] COM3x[3] COM4x[1] COM4x[2] COM4x[3] COM5x[1] COM5x[2] COM5x[3] COMall[1 COMall[2 COMall[3
0    472.04924   -469.70247   -463.77946   -408.04253    299.88611    2.0719477  -0.73601458    -19.02504   -233.31863   -1.0120137   -19.368125    2.0623882  -0.63083406   -9.1820754   -233.34456   -1.0414305   -9.3375946    198.05069   -1.1183102   -18.426168  -0.90932211  -0.90792452    -469.9016
Averages over the last 26 of 51 rows, steps 2500 to 5000:
Lx Pxx Pyy Pzz Temp COM1x[1] COM1x[2] COM1x[3] COM2x[1] COM2x[2] COM2x[3] COM3x[1] COM3x[2] COM3x[3] COM4x[1] COM4x[2] COM4x[3] COM5x[1] COM5x[2] COM5x[3] COMall[1 COMall[2 COMall[3
472.049 -351.598 -345.156 -319.263 302.805 2.05643 -0.749621 -18.9493 -233.304 -1.00392 -19.3699 2.03754 -0.640899 -9.06523 -233.291 -1.02115 -9.37016 198.053 -1.05774 -18.4097 -0.910949 -0.907638 -469.903
Loop time of 64.8653 on 512 procs for 5000 steps with 811923 atoms

variable  com1_x equal "c_COM1x[1]"
variable  com1_y equal "c_COM1x[2]"
variable  com1_z equal "c_COM1x[3]"
variable  com2_x equal "c_COM2x[1]"
variable  com2_y equal "c_COM2x[2]"
variable  com2_z equal "c_COM2x[3]"
variable  com3_x equal "c_COM3x[1]"
variable  com3_y equal "c_COM3x[2]"
variable  com3_z equal "c_COM3x[3]"
variable  com4_x equal "c_COM4x[1]"
variable  com4_y equal "c_COM4x[2]"
variable  com4_z equal "c_COM4x[3]"
variable  com5_x equal "c_COM5x[1]"
variable  com5_y equal "c_COM5x[2]"
variable  com5_z equal "c_COM5x[3]"
variable  comall_x equal "c_COMall[1]"
variable  comall_y equal "c_COMall[2]"
variable  comall_z equal "c_COMall[3]"

#-------------------------- Wave Propagation -------------------------
unfix        3temp
run          1000000
Setting up Verlet run ...
  Unit style  : metal
  Current step: 5000
  Time step   : 0.002
Step Lx Pxx Pyy Pzz Temp COM1x[1] COM1x[2] COM1x[3] COM2x[1] COM2x[2] COM2x[3] COM3x[1] COM3x[2] COM3x[3] COM4x[1] COM4x[2] COM4x[3] COM5x[1] COM5x[2] COM5x[3] COMall[1 COMall[2 COMall[3
5000    472.04924   -288.25482   -274.06925   -236.15888    303.75884    2.0929896  -0.79467438   -18.924717   -233.30723  -0.99406063   -19.359994    2.0687006  -0.69954886   -9.0062272   -233.27287  -0.97759461   -9.3692967    198.04038   -1.0916565   -18.435749  -0.91046504  -0.90941489   -469.90548
Averages over the last 5001 of 10001 rows, steps 505000 to 1005000:
Lx Pxx Pyy Pzz Temp COM1x[1] COM1x[2] COM1x[3] COM2x[1] COM2x[2] COM2x[3] COM3x[1] COM3x[2] COM3x[3] COM4x[1] COM4x[2] COM4x[3] COM5x[1] COM5x[2] COM5x[3] COMall[1 COMall[2 COMall[3
472.049 -109.57 -103.19 -3.42798 303.882 4.11007 0.147408 -20.5398 -231.23 0.0682786 -20.9392 4.09031 0.261593 -10.7196 -231.225 0.0636314 -10.9195 200.147 -0.0362873 -20.045 1.16604 0.107834 -471.404
Loop time of 12513.3 on 512 procs for 1000000 steps with 811923 atoms
