fission-0209
fission-0209
fission-0209
fission-0209
fission-0209
fission-0209
fission-0209
fission-0209
fission-0209
fission-0209
fission-0209
fission-0209
fission-0209
fission-0209
fission-0209
fission-0209
fission-0209
fission-0209
fission-0209
fission-0209
fission-0209
fission-0209
fission-0209
fission-0209
fission-0209
fission-0209
fission-0209
fission-0209
fission-0209
fission-0209
fission-0209
fission-0209
fission-0339
fission-0339
fission-0339
fission-0339
fission-0339
fission-0339
fission-0339
fission-0339
fission-0339
fission-0339
fission-0339
fission-0339
fission-0339
fission-0339
fission-0339
fission-0339
fission-0339
fission-0339
fission-0339
fission-0339
fission-0339
fission-0339
fission-0339
fission-0339
fission-0339
fission-0339
fission-0339
fission-0339
fission-0339
fission-0339
fission-0339
fission-0339
fission-0218
fission-0218
fission-0218
fission-0218
fission-0218
fission-0218
fission-0218
fission-0218
fission-0218
fission-0218
fission-0218
fission-0218
fission-0218
fission-0218
fission-0218
fission-0218
fission-0218
fission-0218
fission-0218
fission-0218
fission-0218
fission-0218
fission-0218
fission-0218
fission-0218
fission-0218
fission-0218
fission-0218
fission-0218
fission-0218
fission-0218
fission-0218
fission-0222
fission-0222
fission-0222
fission-0222
fission-0222
fission-0222
fission-0222
fission-0222
fission-0222
fission-0222
fission-0222
fission-0222
fission-0222
fission-0222
fission-0222
fission-0222
fission-0222
fission-0222
fission-0222
fission-0222
fission-0222
fission-0222
fission-0222
fission-0222
fission-0222
fission-0222
fission-0222
fission-0222
fission-0222
fission-0222
fission-0222
fission-0222
fission-0224
fission-0224
fission-0224
fission-0224
fission-0224
fission-0224
fission-0224
fission-0224
fission-0224
fission-0224
fission-0224
fission-0224
fission-0224
fission-0224
fission-0224
fission-0224
fission-0224
fission-0224
fission-0224
fission-0224
fission-0224
fission-0224
fission-0224
fission-0224
fission-0224
fission-0224
fission-0224
fission-0224
fission-0224
fission-0224
fission-0224
fission-0224
fission-0278
fission-0278
fission-0278
fission-0278
fission-0278
fission-0278
fission-0278
fission-0278
fission-0278
fission-0278
fission-0278
fission-0278
fission-0278
fission-0278
fission-0278
fission-0278
fission-0278
fission-0278
fission-0278
fission-0278
fission-0278
fission-0278
fission-0278
fission-0278
fission-0278
fission-0278
fission-0278
fission-0278
fission-0278
fission-0278
fission-0278
fission-0278
fission-0280
fission-0280
fission-0280
fission-0280
fission-0280
fission-0280
fission-0280
fission-0280
fission-0280
fission-0280
fission-0280
fission-0280
fission-0280
fission-0280
fission-0280
fission-0280
fission-0280
fission-0280
fission-0280
fission-0280
fission-0280
fission-0280
fission-0280
fission-0280
fission-0280
fission-0280
fission-0280
fission-0280
fission-0280
fission-0280
fission-0280
fission-0280
fission-0075
fission-0075
fission-0075
fission-0075
fission-0075
fission-0075
fission-0075
fission-0075
fission-0075
fission-0075
fission-0075
fission-0075
fission-0075
fission-0075
fission-0075
fission-0075
fission-0075
fission-0075
fission-0075
fission-0075
fission-0075
fission-0075
fission-0075
fission-0075
fission-0075
fission-0075
fission-0075
fission-0075
fission-0075
fission-0075
fission-0075
fission-0075
fission-0202
fission-0202
fission-0202
fission-0202
fission-0202
fission-0202
fission-0202
fission-0202
fission-0202
fission-0202
fission-0202
fission-0202
fission-0202
fission-0202
fission-0202
fission-0202
fission-0202
fission-0202
fission-0202
fission-0202
fission-0202
fission-0202
fission-0202
fission-0202
fission-0202
fission-0202
fission-0202
fission-0202
fission-0202
fission-0202
fission-0202
fission-0202
fission-0292
fission-0292
fission-0292
fission-0292
fission-0292
fission-0292
fission-0292
fission-0292
fission-0292
fission-0292
fission-0292
fission-0292
fission-0292
fission-0292
fission-0292
fission-0292
fission-0292
fission-0292
fission-0292
fission-0292
fission-0292
fission-0292
fission-0292
fission-0292
fission-0292
fission-0292
fission-0292
fission-0292
fission-0292
fission-0292
fission-0292
fission-0292
fission-0281
fission-0281
fission-0281
fission-0281
fission-0281
fission-0281
fission-0281
fission-0281
fission-0281
fission-0281
fission-0281
fission-0281
fission-0281
fission-0281
fission-0281
fission-0281
fission-0281
fission-0281
fission-0281
fission-0281
fission-0281
fission-0281
fission-0281
fission-0281
fission-0281
fission-0281
fission-0281
fission-0281
fission-0281
fission-0281
fission-0281
fission-0281
fission-0243
fission-0243
fission-0243
fission-0243
fission-0243
fission-0243
fission-0243
fission-0243
fission-0243
fission-0243
fission-0243
fission-0243
fission-0243
fission-0243
fission-0243
fission-0243
fission-0243
fission-0243
fission-0243
fission-0243
fission-0243
fission-0243
fission-0243
fission-0243
fission-0243
fission-0243
fission-0243
fission-0243
fission-0243
fission-0243
fission-0243
fission-0243
fission-0259
fission-0259
fission-0259
fission-0259
fission-0259
fission-0259
fission-0259
fission-0259
fission-0259
fission-0259
fission-0259
fission-0259
fission-0259
fission-0259
fission-0259
fission-0259
fission-0259
fission-0259
fission-0259
fission-0259
fission-0259
fission-0259
fission-0259
fission-0259
fission-0259
fission-0259
fission-0259
fission-0259
fission-0259
fission-0259
fission-0259
fission-0259
fission-0207
fission-0207
fission-0207
fission-0207
fission-0207
fission-0207
fission-0207
fission-0207
fission-0207
fission-0207
fission-0207
fission-0207
fission-0207
fission-0207
fission-0207
fission-0207
fission-0207
fission-0207
fission-0207
fission-0207
fission-0207
fission-0207
fission-0207
fission-0207
fission-0207
fission-0207
fission-0207
fission-0207
fission-0207
fission-0207
fission-0207
fission-0207
fission-0244
fission-0244
fission-0244
fission-0244
fission-0244
fission-0244
fission-0244
fission-0244
fission-0244
fission-0244
fission-0244
fission-0244
fission-0244
fission-0244
fission-0244
fission-0244
fission-0244
fission-0244
fission-0244
fission-0244
fission-0244
fission-0244
fission-0244
fission-0244
fission-0244
fission-0244
fission-0244
fission-0244
fission-0244
fission-0244
fission-0244
fission-0244
fission-0269
fission-0269
fission-0269
fission-0269
fission-0269
fission-0269
fission-0269
fission-0269
fission-0269
fission-0269
fission-0269
fission-0269
fission-0269
fission-0269
fission-0269
fission-0269
fission-0269
fission-0269
fission-0269
fission-0269
fission-0269
fission-0269
fission-0269
fission-0269
fission-0269
fission-0269
fission-0269
fission-0269
fission-0269
fission-0269
fission-0269
fission-0269

The following PBS extra args (PBS_EXTRA_ARGS) will be used: -P ldrd
The following lammps extra args (LAMMPS_EXTRA_ARGS) will be used:
LAMMPS (16 Feb 2016)
#log		log.c
units           metal
dimension       3
boundary        p p p
atom_style      atomic
shell         mkdir  cfg
shell         mkdir  dump

# ----------------------- ATOM DEFINITION & Force Field -------------
lattice         fcc 3.615 #origin 0.0 0.0 0.0 orient x 1 -1 0 orient y 1 1 -2 orient z 1 1 1
Lattice spacing in x,y,z = 3.615 3.615 3.615
variable        Lx equal 65
variable        Ly equal 3
variable        Lz equal 260
variable        boxLZ equal 270
region          SYSTEM block -65 65 -3 3 -260 0 units lattice
region          BOX block -65 65 -3 3 -270 5 units lattice
create_box      1 BOX
Created orthogonal box = (-234.975 -10.845 -976.05) to (234.975 10.845 18.075)
create_atoms    1 region SYSTEM
Created 812760 atoms

delete_atoms     porosity BOX 0.001 22890
Deleted 792 atoms, new total = 811968

#---------------------------------------------------------------------

pair_style      eam/alloy
pair_coeff  	  * * Cu01.eam.alloy Cu

#----------------------------------------------------------------------
velocity       all create 300.0 29035 mom yes rot yes dist gaussian
fix             1 all npt temp 300 300 0.1 iso 0.0 0.0 2
run      10000
  1 neighbor list requests
  update every 1 steps, delay 10 steps, check yes
Setting up Verlet run ...
  Unit style  : metal
  Current step: 0
  Time step   : 0.001
Step Temp E_pair E_mol TotEng Press Volume
0          300   -2871612.6            0   -2840126.1    2701.6152     10133330
Loop time of 126.143 on 512 procs for 10000 steps with 811968 atoms

unfix 1

fix            2 all nvt temp 300.0 300.0 0.1

run      10000
Setting up Verlet run ...
  Unit style  : metal
  Current step: 10000
  Time step   : 0.001
Step Temp E_pair E_mol TotEng Press
10000    299.95747   -2839535.1            0   -2808053.1    18.995272
Loop time of 122.584 on 512 procs for 10000 steps with 811968 atoms

reset_timestep 0
unfix    2
#---------------------- DEFINE Laser GERION and GROUP ----------------
region       R1  block -75  75  INF  INF  INF  5  units box
group        G1 region R1
259192 atoms in group G1
group        G2 subtract all G1
552776 atoms in group G2

#define     temperature/pressure calculation  group
variable    x1atom atom "x>=0  &&  x<4 &&  z>-40 && z<1"     ##NEW!!!!!!!!!!!!
variable    x2atom atom "x>=-234.98  &&  x<-230.98 &&  z>-40 && z<1"
variable    x3atom atom "x>=0  &&  x<4 &&  z>-20 && z<1"
variable    x4atom atom "x>=-234.98  &&  x<-230.98 &&  z>-20 && z<1"
variable    x5atom atom "x>=196  &&  x<200 &&  z>-40 && z<1"

group       x1atom variable x1atom
358 atoms in group x1atom
group       x2atom variable x2atom
276 atoms in group x2atom
group       x3atom variable x3atom
188 atoms in group x3atom
group       x4atom variable x4atom
144 atoms in group x4atom
group       x5atom variable x5atom
381 atoms in group x5atom

compute      COM1x x1atom com
compute      COM2x x2atom com
compute      COM3x x3atom com
compute      COM4x x4atom com
compute      COM5x x5atom com

compute      COMall all com

#Temperature profile
#variable      Tprofile atom 300*(1+(step/5000)*2.5*exp(z/40))
#variable tmp equal "lz"
variable      Tprofile atom  300+600*(step/5000)*exp(z/40)*exp(-x*x/1289)

# ------------------------- SETTINGS ---------------------------------
thermo          100
thermo_style    custom step lx pxx pyy pzz temp c_COM1x[1] c_COM1x[2] c_COM1x[3] c_COM2x[1] c_COM2x[2] c_COM2x[3] c_COM3x[1] c_COM3x[2] c_COM3x[3] c_COM4x[1] c_COM4x[2] c_COM4x[3]  c_COM5x[1] c_COM5x[2] c_COM5x[3] c_COMall[1] c_COMall[2] c_COMall[3]

timestep       0.002

compute dispall all displace/atom
# ---------------- Run Laser Material Interaction --------------------
#dump          1 all custom 1000 dump/z1dump.atom id type x y z c_dispall[1]  c_dispall[2]  c_dispall[3] c_dispall[4]
#dump          2 all cfg 100 cfg/*.cfg mass type xs ys zs
#dump_modify   2 element Al

#relax for 2 PS
#fix           1 all nvt temp 300.0 300.0 0.1
#run  1000
#unfix         1

fix           1  all nve
fix           3temp  all  langevin  v_Tprofile  0  0.1  378411   #TEST ALL
run           5000
Setting up Verlet run ...
  Unit style  : metal
  Current step: 0
  Time step   : 0.002
Step Lx Pxx Pyy Pzz Temp COM1x[1] COM1x[2] COM1x[3] COM2x[1] COM2x[2] COM2x[3] COM3x[1] COM3x[2] COM3x[3] COM4x[1] COM4x[2] COM4x[3] COM5x[1] COM5x[2] COM5x[3] COMall[1 COMall[2 COMall[3
0    472.02366   -418.24991   -438.21716   -453.38058    299.78938    2.1345475  -0.83232437   -19.062326   -233.34915  -0.85306284   -19.379735    2.1150159  -0.91144733    -9.046306   -233.36395  -0.84403934   -9.4177246    198.04268  -0.85929544   -19.656015  -0.90416485  -0.90795023    -469.8927
Averages over the last 26 of 51 rows, steps 2500 to 5000:
Lx Pxx Pyy Pzz Temp COM1x[1] COM1x[2] COM1x[3] COM2x[1] COM2x[2] COM2x[3] COM3x[1] COM3x[2] COM3x[3] COM4x[1] COM4x[2] COM4x[3] COM5x[1] COM5x[2] COM5x[3] COMall[1 COMall[2 COMall[3
472.024 -315.952 -312.476 -348.666 302.938 2.14901 -0.816147 -18.9598 -233.314 -0.875295 -19.3291 2.13991 -0.888275 -8.85118 -233.329 -0.89005 -9.33298 198.031 -0.878968 -19.7004 -0.905773 -0.907716 -469.894
Loop time of 64.4301 on 512 procs for 5000 steps with 811968 atoms

variable  com1_x equal "c_COM1x[1]"
variable  com1_y equal "c_COM1x[2]"
variable  com1_z equal "c_COM1x[3]"
variable  com2_x equal "c_COM2x[1]"
variable  com2_y equal "c_COM2x[2]"
variable  com2_z equal "c_COM2x[3]"
variable  com3_x equal "c_COM3x[1]"
variable  com3_y equal "c_COM3x[2]"
variable  com3_z equal "c_COM3x[3]"
variable  com4_x equal "c_COM4x[1]"
variable  com4_y equal "c_COM4x[2]"
variable  com4_z equal "c_COM4x[3]"
variable  com5_x equal "c_COM5x[1]"
variable  com5_y equal "c_COM5x[2]"
variable  com5_z equal "c_COM5x[3]"
variable  comall_x equal "c_COMall[1]"
variable  comall_y equal "c_COMall[2]"
variable  comall_z equal "c_COMall[3]"

#-------------------------- Wave Propagation -------------------------
unfix        3temp
run          1000000
Setting up Verlet run ...
  Unit style  : metal
  Current step: 5000
  Time step   : 0.002
Step Lx Pxx Pyy Pzz Temp COM1x[1] COM1x[2] COM1x[3] COM2x[1] COM2x[2] COM2x[3] COM3x[1] COM3x[2] COM3x[3] COM4x[1] COM4x[2] COM4x[3] COM5x[1] COM5x[2] COM5x[3] COMall[1 COMall[2 COMall[3
5000    472.02366   -250.48801   -253.09523   -298.29965    303.76963    2.1675252  -0.81383244   -18.944558   -233.30244  -0.86703688   -19.338788    2.1773614  -0.91866724   -8.8261223   -233.30408  -0.86523436   -9.3241705    198.01788   -0.9011266   -19.741936  -0.90503119   -0.9095226   -469.89629
Averages over the last 5001 of 10001 rows, steps 505000 to 1005000:
Lx Pxx Pyy Pzz Temp COM1x[1] COM1x[2] COM1x[3] COM2x[1] COM2x[2] COM2x[3] COM3x[1] COM3x[2] COM3x[3] COM4x[1] COM4x[2] COM4x[3] COM5x[1] COM5x[2] COM5x[3] COMall[1 COMall[2 COMall[3
472.024 -47.3114 -40.2351 -3.75236 303.966 5.10544 0.179044 -18.9486 -230.278 0.0664711 -19.2732 5.09184 0.125398 -8.9045 -230.276 0.0665228 -9.28156 201.056 0.00706886 -19.6198 2.10577 0.0660915 -469.762
Loop time of 12296.8 on 512 procs for 1000000 steps with 811968 atoms
