LAMMPS (16 Feb 2016)
# ------------------------ INITIALIZATION ----------------------------
echo both
#log		log.c
units           metal
dimension       3
boundary        p p p
atom_style      atomic
shell         mkdir  cfg
shell         mkdir  dump

# ----------------------- ATOM DEFINITION & Force Field -------------
lattice         fcc 3.615 #origin 0.0 0.0 0.0 orient x 1 -1 0 orient y 1 1 -2 orient z 1 1 1
Lattice spacing in x,y,z = 3.615 3.615 3.615
variable        Lx equal 65
variable        Ly equal 3
variable        Lz equal 260
variable        boxLZ equal 270
region          SYSTEM block -65 65 -3 3 -260 0 units lattice
region          BOX block -65 65 -3 3 -270 5 units lattice
create_box      1 BOX
Created orthogonal box = (-234.975 -10.845 -976.05) to (234.975 10.845 18.075)
create_atoms    1 region SYSTEM
Created 812760 atoms

delete_atoms     porosity BOX 0.001 6393
Deleted 778 atoms, new total = 811982

#---------------------------------------------------------------------

pair_style      eam/alloy
pair_coeff  	  * * Cu01.eam.alloy Cu

#----------------------------------------------------------------------
velocity       all create 300.0 32498 mom yes rot yes dist gaussian
fix             1 all npt temp 300 300 0.1 iso 0.0 0.0 2
run      10000
  1 neighbor list requests
  update every 1 steps, delay 10 steps, check yes
Step Temp E_pair E_mol TotEng Press Volume
0          300   -2871682.9            0   -2840195.9     2707.901     10133330
Loop time of 125.891 on 512 procs for 10000 steps with 811982 atoms

fix            2 all nvt temp 300.0 300.0 0.1

run      10000
Step Temp E_pair E_mol TotEng Press
10000    299.99799   -2839590.4            0   -2808103.6   -39.223308
Loop time of 124.749 on 512 procs for 10000 steps with 811982 atoms

reset_timestep 0
unfix    2
#---------------------- DEFINE Laser GERION and GROUP ----------------
region       R1  block -75  75  INF  INF  INF  5  units box
group        G1 region R1
259221 atoms in group G1
group        G2 subtract all G1
552761 atoms in group G2

#define     temperature/pressure calculation  group
variable    x1atom atom "x>=0  &&  x<4 &&  z>-40 && z<1"     ##NEW!!!!!!!!!!!!
variable    x2atom atom "x>=-234.98  &&  x<-230.98 &&  z>-40 && z<1"
variable    x3atom atom "x>=0  &&  x<4 &&  z>-20 && z<1"
variable    x4atom atom "x>=-234.98  &&  x<-230.98 &&  z>-20 && z<1"
variable    x5atom atom "x>=196  &&  x<200 &&  z>-40 && z<1"

group       x1atom variable x1atom
334 atoms in group x1atom
group       x2atom variable x2atom
276 atoms in group x2atom
group       x3atom variable x3atom
176 atoms in group x3atom
group       x4atom variable x4atom
144 atoms in group x4atom
group       x5atom variable x5atom
387 atoms in group x5atom

compute      COM1x x1atom com
compute      COM2x x2atom com
compute      COM3x x3atom com
compute      COM4x x4atom com
compute      COM5x x5atom com

compute      COMall all com

#Temperature profile
#variable      Tprofile atom 300*(1+(step/5000)*2.5*exp(z/40))
#variable tmp equal "lz"
variable      Tprofile atom  300+600*(step/5000)*exp(z/40)*exp(-x*x/1289)

# ------------------------- SETTINGS ---------------------------------
thermo          100
thermo_style    custom step lx pxx pyy pzz temp c_COM1x[1] c_COM1x[2] c_COM1x[3] c_COM2x[1] c_COM2x[2] c_COM2x[3] c_COM3x[1] c_COM3x[2] c_COM3x[3] c_COM4x[1] c_COM4x[2] c_COM4x[3]  c_COM5x[1] c_COM5x[2] c_COM5x[3] c_COMall[1] c_COMall[2] c_COMall[3]

timestep       0.002

compute dispall all displace/atom
# ---------------- Run Laser Material Interaction --------------------
#dump          1 all custom 1000 dump/z1dump.atom id type x y z c_dispall[1]  c_dispall[2]  c_dispall[3] c_dispall[4]
#dump          2 all cfg 100 cfg/*.cfg mass type xs ys zs
#dump_modify   2 element Al

#relax for 2 PS
#fix           1 all nvt temp 300.0 300.0 0.1
#run  1000
#unfix         1

fix           1  all nve
fix           3temp  all  langevin  v_Tprofile  0  0.1  378411   #TEST ALL
run           5000
Step Lx Pxx Pyy Pzz Temp COM1x[1] COM1x[2] COM1x[3] COM2x[1] COM2x[2] COM2x[3] COM3x[1] COM3x[2] COM3x[3] COM4x[1] COM4x[2] COM4x[3] COM5x[1] COM5x[2] COM5x[3] COMall[1 COMall[2 COMall[3
0    472.03454   -429.30611   -411.26187   -397.36361    299.64131    2.2623964  -0.78137403    -19.16178   -233.39088  -0.89293422   -19.388328    2.2491559  -0.91602753     -9.22376    -233.3928   -0.8774314   -9.3763657    198.01333   -0.7621259   -19.436367  -0.91025625    -0.907439   -469.90043
Averages over the last 26 of 51 rows, steps 2500 to 5000:
Lx Pxx Pyy Pzz Temp COM1x[1] COM1x[2] COM1x[3] COM2x[1] COM2x[2] COM2x[3] COM3x[1] COM3x[2] COM3x[3] COM4x[1] COM4x[2] COM4x[3] COM5x[1] COM5x[2] COM5x[3] COMall[1 COMall[2 COMall[3
472.035 -307.82 -292.586 -302.535 302.792 2.27629 -0.766989 -19.1439 -233.348 -0.912666 -19.3888 2.24395 -0.853586 -9.148 -233.362 -0.924442 -9.40439 197.991 -0.744423 -19.448 -0.911888 -0.907157 -469.901
Loop time of 64.6535 on 512 procs for 5000 steps with 811982 atoms

var

variable  com1_x equal "c_COM1x[1]"
variable  com1_y equal "c_COM1x[2]"
variable  com1_z equal "c_COM1x[3]"
variable  com2_x equal "c_COM2x[1]"
variable  com2_y equal "c_COM2x[2]"
variable  com2_z equal "c_COM2x[3]"
variable  com3_x equal "c_COM3x[1]"
variable  com3_y equal "c_COM3x[2]"
variable  com3_z equal "c_COM3x[3]"
variable  com4_x equal "c_COM4x[1]"
variable  com4_y equal "c_COM4x[2]"
variable  com4_z equal "c_COM4x[3]"
variable  com5_x equal "c_COM5x[1]"
variable  com5_y equal "c_COM5x[2]"
variable  com5_z equal "c_COM5x[3]"
variable  comall_x equal "c_COMall[1]"
variable  comall_y equal "c_COMall[2]"
variable  comall_z equal "c_COMall[3]"

#-------------------------- Wave Propagation -------------------------
unfix        3temp
run          1000000
Step Lx Pxx Pyy Pzz Temp COM1x[1] COM1x[2] COM1x[3] COM2x[1] COM2x[2] COM2x[3] COM3x[1] COM3x[2] COM3x[3] COM4x[1] COM4x[2] COM4x[3] COM5x[1] COM5x[2] COM5x[3] COMall[1 COMall[2 COMall[3
5000    472.03454   -256.78954   -232.83104    -248.8625    303.44825    2.3237499  -0.78601041   -19.162471   -233.36185  -0.90386481   -19.402956    2.3020956  -0.89994294   -9.1770893   -233.33906  -0.89714334   -9.4132423     197.9794  -0.74244048   -19.473917  -0.91120804  -0.90911581    -469.9042
Averages over the last 18 of 35 rows, steps 6700 to 8400:
Lx Pxx Pyy Pzz Temp COM1x[1] COM1x[2] COM1x[3] COM2x[1] COM2x[2] COM2x[3] COM3x[1] COM3x[2] COM3x[3] COM4x[1] COM4x[2] COM4x[3] COM5x[1] COM5x[2] COM5x[3] COMall[1 COMall[2 COMall[3
472.044 -152.725 -147.121 -88.5811 303.735 2.07136 -0.863808 -18.8153 -233.385 -0.827542 -19.426 2.03378 -0.805398 -8.89772 -233.368 -0.826347 -9.41622 198.014 -0.893443 -18.8137 -0.901177 -0.905642 -469.908
   11200    472.03454    112.13048    94.9840412.42466.63982    303.81125    2.3325109  -0.78117568   -19.272784   -233.14922  -0.95692041   -19.603046    2.3013547  -0.89134316   -9.2935236   -233.15136   -0.9533349    -9.643134    198.18464  -0.84229336   -19.475026  -0.86545121  -0.89798772   -469.89411
   17800    472.02366     141.9546    151.75139    242.32678    303.94244     2.145428  -0.73407705   -19.126154   -233.24914  -0.93596792    -   -19.516097    2.3624764  -0.91453704   -9.3135082   -233.23485   -0.9704982   -9.5298528    198.08149  -0.77467693   -19.503546  -0.81674234   -0.8861417   -469.88337
   21800    472.04924   -261.47838   -234.01926   -175.59379    304.323.53038     2.225786  -0.78818482   -19.230192   -233.18916  -0.84541436   -19.328808    2.1678624  -0.90297693    -9.299244   -233.19866    -0.846489   -9.3270101    198.10443   -0.7080827   -19.282657   -0.7872218  -0.87896228   -469.87686
   39000    472.03454    107.22195    73.660823    195.58968     303.8336    2.4736019  -0.79146387   -19.299937   -233.09214  -0.73958758   -19.361345    2.4122-0.80 -0.8901768   -9.3649126   -233.09485  -0.72880647   -9.3397879    198.17714  -0.68320781   -19.418813  -0.66028351  -0.84809082   -469.84887
   41700  .0236.03454    -130.1349   -97.578189   -99.262357    303.41342    2.5307967   -0.7831313   -19.240796   -233.13558  -0.77919923   -19.323281    2.4982186  -0.89203441   -9.2850643   -233.13628  -0.79759015   -9.3405179    198.16604  -0.67466409   -19.306454  -0.64035715  -0.84324471   -469.84447
   49600    472.03454   -238.29364   -241.11432   -254.11703    303.43018    2.6889271   -0.7858163   -19.102637   -232.94938  -0.77040951   -19.128095    2.6670976  -0.877311-8.8910759   -233.17289  -0.85353206   -9.2558805    198.22001   -0.8590404   -19.584882  -0.72598882  -0.85150608   -469.88828
   50900    472.02366   -217.75491   -207.15994   -208.41538    304.18882     2.309768  -0.71582111   -18.972721   -233.12407  -0.91299978   -19.245637     2.300602  -0.78110952   -8.9071612    -233.1171  -0.89984339   -9.2453786    198.11402  -0.90352404   -118.519.279387  -0.57245993  -0.82673207    -469.8295
   60200    472.03454    128.76039    106.46736    302.16494    303.86458    2.6236232  -0.73791087   -19.220731   -232.90929  -0.77773583   -19.412183    2.5671329  -0.79113391   -9.256530233.09448  -0.89223775   -9.4634771    198.24601   -1.0441516    -19.81086  -0.68343615   -0.8377174   -469.88638
   68200    472.03454   -355.49419   -363.3382-348-396.77274    303.43944    2.7441234  -0.71806428   -19.023076   -232.74116  -0.85002369   -19.196528    2.7244963  -0.78809456   -9.0891061   -232.76766  -0.85334969    -9.210183    198.48289  -0.74357068   -19.192685  -0.44478363  -0.79568111   -469.80134
   69500    472.03454    -312.1477   -301.12908   -298.30736    303.55848    2.7229782  -0.67846774   -19.144809   -232.7779.82519484   -19.350564    2.4364643  -0.80037543    -8.794474   -233.02381  -0.83343114   -9.3223838    198.34719  -0.91871129   -19.677541   -0.6461022  -0.82561978   -469.88471
   80100    472.03454     202.1344    180.36483    315.05356    303.75474    2.8405466  -0.90739374   -19.237674   -232.68736  -0.760381839.555088     2.412294  -0.84933028    -9.056008   -232.97515  -0.80631837   -9.5528869    198.38228  -0.84326303   -19.829618  -0.60354953   -0.8118311   -469.88281
   89400    472.03454   -351.87423   -372.05532   -406.74073     303.2562.4285.8717194  -0.71526633   -19.006649   -232.84982  -0.74135855   -19.196772     2.842858  -0.81101004   -9.0569615   -232.87716  -0.75501587   -9.1845744    198.48927  -0.60318628   -19.226451   -0.2883248  -0.75763024   -469.76684
  118500    472.03454     28.33836    33.289004    153.28247    304.02455    3.0266108  -0.64648254   -19.174757     -232.457  -0.63923067   -19.246712      2.99263  -0.71851268   -9.2204944   -232.46786  -0.62562367   -9.2483619     198.8542   -0.5260865    -19.25200.59622113  -0.75547128   -470.13222
  119900    472.04924    64.331113    71.8868.11134    256.97049    304.05094    3.0398139  -0.59622017   -19.313193   -232.45958  -0.67704389   -19.264383    3.0107527  -0.67981161   -9.3537105   -232.42638   -0.7116297   -9.2575829    198.85686  -0.50552175   -19.281449 -0.063230744  -0.70288723    -469.7172
  126500    472.04924   -67.073577   -109.01406    16.624472    303.53567    2.3286308  -0.71425396   -19.275703   -232.93203 -0.78-0.62057473   -19.255333    3.1574538  -0.78805148   -9.1360619   -232.40736   -0.6245798   -9.2356843    198.84946  -0.50006184   -19.339789 -0.014521865   -0.6910412   -469.70646
  129100    472.03454   -194.84932   -191.77195   -166.18801    303.99079    3.1626647  -0.63267084   -19.136484   -232.32688   -0.7262606   -19.166118    3.1519614  -0.71531952   -9.1902036   -232.31547  -0.73311153   -9.1462965     198.9777  -0.59957218    -19.07..74109417   -470.15339
  130500    472.04924    -273.3327   -276.41803   -270.17593.48495   -272.43149    304.08132    3.1293685   -0.6419303   -19.112747   -232.31453  -0.70772313    -19.07375    3.0918158  -0.76335935   -9.1526115   -232.33889  -0.70039246   -9.1036186    198.98402  -0.57559171   -19.080769  0.014998667  -0.68386179   -469.69995
  138400    472.03454   -128.95974   -79.062724   -74.067178     303.8458    3.2115103   -0.6138983   -19.091752   -232.31241  -0.59022947   -19.122095    3.1863513  -0.67473258   -9.1275706   -232.3189.6935458    198.47613  -0.91292921   -18.701045  -0.54112463  -0.72848029   -470.17197
  139700    472.04924    -8.744887    36.362087    189.99772    304.00582    2.3285116  -0.67981971    -19.34057   -232.95592  -0.72132234   -19.702313    2.2875369  -0.53895164   -9.5028369    -232.9546  -0.73411763   -9.6789581    198.42572   -0.8463156   -18.873515  -0.53752536  -0.72671706   -470.10.66734914   -469.68498
  150300    472.03454   -132.98143   -143.19017   -106.96498    304.13152    3.3449375  -0.53418622   -19.011807   -232.22367  -0.69468788   -19.107717    3.3082154  -0.63752909   -9.0750301   -232.20488  -0.71408147   -9.0759006    199.12975  -0.55279139   -19.166143    0.1611253   -0.64832300400469.66772
  157000    472.03454   -291.96133   -348.09947   -348.82307    303.74.54844479   -19.001128   -232.69788  -0.76274591    -19.24417    2.6608481  -0.61739285   -8.9308078   -232.71147   -0.7654357    -9.233202    198.61706  -0.81508554   -19.562195  -0.29484195  -0.71179813     -469.869
  167600    472.03454    184.13695    199.93443    314.19539    304.05594    3.4574419.440939   -232.77419  -0.81823098   -19.873395    2.4718766  -0.52436083     -9.59692   -232.76079  -0.82046746   -9.8617546    198.57195  -0.88928009   -18.995749   -0.4602795  -0.68887542    -470.2303
  168900    472.04924   -9.8603762    0.1088298    129.73645    303.95171    2.5010192  -0.66704454   -19.342112   -232.88318  -0.73077563   -19.770936    2.4824627  -0.53086964   -9.5253.61945878   -9.2674185   -232.06689  -0.57942572    -9.199116    199.26186  -0.44460772   -19.218479   0.29839578  -0.61493944   -469.63745
  176900    472.0345311.1943   -304.80399    303.56266    2.5108333  -0.65612174   -19.214322   -232.86836  -0.68811954    -19.69569    2.4959645  -0.51713608   -9.3907333   -232.85159  -0.69719043     -9.66846    198.49933  -0.78486664   -18.817049  -0.43453088  -0.67626154   -470.24888
  178200    472.04924   -320.00413   -297.60113   -271.94905    303.79784    2.4844078   -0.7209271   -19.263737   -232.7819.002761   -231.97024  -0.64010622   -19.053896    3.5161473   -0.6842082   -9.0608107    -231.9775  -0.65236642   -9.0570395    199.36859  -0.54680663   -19.008646   0.36703102  -0.59824731   -469.62232
  186100    472.03454       209.44    250.60432    382.10647    303.74556    3.6099253  -0.49013956   -19.139067   -232.03594  -0.56139938   -19.283392    3.5739189   -0.5897564   -9.1806337   -232.04063  -0.56305971   -9.2886343    199.30487  -0.48648679   -19.2-0.67   0.42533407  -0.58406797   -469.60946
  190100    472.02366    152.92228    202.19789    275.97014    303.96398    2.7639261  -0.53247933   -19.152789   -232.61584  -0.66404096   -19.473109    2.7743989  -0.60178386   -9.1230108   -232.65238  -0.6562502331.9394  -0.51695164   -9.1760815    199.33962  -0.36151584   -19.167143    0.4548546  -0.57688856   -469.60295
  227200    472.03454    91.164572    79.952902    184.36927    303.65767    3.8260664  -0.37255537   -19.022823   -231.62205   -0.5380781   -19.128068    3.7798532  -0.47596994   -9.0836461   -231.62671  -0.54104091   -9.1559291    199.69849.140.38872983   -19.175098   0.72865754  -0.51029952   -469.54257
  233900    472.03-84.   116.01881    147.15612    272.90256    304.02418    3.9636548  -0.44910532   -19.080627   -231.52777  -0.60473077   -19.132306    3.9470625  -0.53429925   -9.1307464   -231.54883   -0.6184294   -9.1170255    199.79832  -0.36110419   -19.181888   0.77810443  -0.49827401   -469.53167
  267000    472.03454   -281.22731   -250.50517   -290.09982      303.619    4.2359426  -0.34883716    -18.82716   -231.34198  -0.45895695640198.856937    4.2430313  -0.41994541   -8.8743878   -231.34138  -0.42316562   -8.8419564    200.02213   -0.3489371   -18.886361    1.0223868  -0.43886438   -469.47779
  285600 .27072.03454   -322.47307   -317.92129   -352.53398    303.32076    4.2706889  -0.35533014   -18.840948   -231.21092  -0.44648518   -18.836851     4.236421  -0.43441268   -8.8957422   -231.20708  -0.42606528   -8.8329499    200.12366  -0.24312889   -18.798918    1.1596573  -0.40548012   -469.44752
  296200    472.03454 .467837.0247    238.74169    408.66561    303.56314    4.3948441  -0.35573508   -18.951614   -231.11509  -0.33295426   -19.083539    4.3638651   -0.4559119   -9.0024442   -231.09363   -0.3287739   -9.1196451    200.18571  -0.20009372   -18.941797    1.2378867  -0.38645468   -469.43027
  314700    472.03454    60.412627    46.199248    184.89976    304.09282    4.6241099  -0.22051932   -18.864601   -231.04222  -0.46815533   -18.952007    4.5976737  -0.29138874   -8.9513245   -231.055210.10.47711766   -8.9476968     200.2648  -0.26825066   -18.956877    1.3744192   -0.3532499   -469.40016
  325300    472.03454   -214.40211   -201.46926   -221.35782    303.71238    4.6164514  -0.26512431   -18.731715   -230.93746  -0.35123396   -18.731424    4.5962621  -0.37581544   -8.7957887   -230.93842  -0.375428728.978.7490151    200.32374  -0.18369929   -18.831795    1.4526486  -0.33422446   -469.38291
 7
  3426
  361100    472.03454    246.31844    236.66617    405.97601    303.86561     4.994705  -0.21092418   -18.927913   -230.64767  -0.22026124   -18.888187    4.9775616  -0.29756928   -8.974-0.19458367   -10.036323   -232.36916  -0.51023619   -10.256358    199.04092  -0.57202709   -19.352015  0.075457916   -0.4264253   -470.61685
  371700    472.03454   -378.10072   -393.67005   -412.26411    303.71999    4.8564405  -0.16362575   -18.698456   -230.64495  -0.28110246   -18.665714     4.821445  -0.25740708   -8.7573887   -230-9.791   -0.2637993   -8.6630263    200.70825  -0.10456571   -18.725443    1.7950868  -0.25094329   -469.30739
  375700    472.03454   -208.06329   -214.21907    -203.6768    303.68019    5.0239694  -0.24392654   -18.636757   -230.5797709440.2591255   -18.763378     5.016682  -0.34174088   -8.7171484   -230.57875  -0.25586694   -8.7709529    200.70448  -0.12907799   -18.808719    1.8246073  -0.24376388   -469.30088
  382300    472.03454    237.08632    254.17071    439.53784    304.17026    5.0525622  -0.18733193   -18.964658   -230.51905  -0.21738369   -18.957565    5.0159472  -0.27440224   -9.0305998   -230.53104  -0.206232.19671  -0.49509514   -10.210185    199.15523  -0.57702927     -19.3947   0.13415369  -0.39767108    -470.6592
  385000    472.04924    35.913567    28.234261303.84329    5.0584242  -0.15525417   -18.812696   -230.50801  -0.20730364    -18.81145    5.0471475  -0.26066626   -8.8799961   -230.52002  -0.21381139   -8.8259972    200.76528  -0.10618568   -18.958668    1.8932425  -0.22707175   -469.28575
  422100    472.04924   -32.991445   -26.910757    112.28215    304.23457    3.1658934  -0.30348-0.11952956   -18.649175   -230.30878  -0.16853313   -18.750771    5.2388381  -0.21142853   -8.7276039   -230.30198  -0.16379505    -8.786935    200.93692 -0.048591261   -18.703454    2.1670455  -0.16048271   -469.22537
  424700    472.04924     111.1185    110.89004    326.69183    304.27288    3.3013069  -0.31154566   -19.986349   -232.22924   -0.3469694   -20.314581    3.2867837  -0.19629832   -10.167465   -232.21558  -0.34861348   -10.299272    199.15277  -0.5044104.061163386   -18.914217    2.1862338  -0.15581609   -469.22114
  440600    472.03454   -214.95129   -189.30733   -218.47968    303.73808    5.4197068 -0.057947563   -18.506446   -230.12987  -0.15146614   -18.609197    5.3818495  -0.17682389   -8.5717934   -230.10871  -0.16086034   -8.6050501    201.2040.29556709  -0.31859696   -470.77567
Loop time of 12513.3 on 512 procs for 1000000 steps with 811923 atoms

0:14
