fission-0251
fission-0251
fission-0251
fission-0251
fission-0251
fission-0251
fission-0251
fission-0251
fission-0251
fission-0251
fission-0251
fission-0251
fission-0251
fission-0251
fission-0251
fission-0251
fission-0251
fission-0251
fission-0251
fission-0251
fission-0251
fission-0251
fission-0251
fission-0251
fission-0251
fission-0251
fission-0251
fission-0251
fission-0251
fission-0251
fission-0251
fission-0251
fission-0234
fission-0234
fission-0234
fission-0234
fission-0234
fission-0234
fission-0234
fission-0234
fission-0234
fission-0234
fission-0234
fission-0234
fission-0234
fission-0234
fission-0234
fission-0234
fission-0234
fission-0234
fission-0234
fission-0234
fission-0234
fission-0234
fission-0234
fission-0234
fission-0234
fission-0234
fission-0234
fission-0234
fission-0234
fission-0234
fission-0234
fission-0234
fission-0236
fission-0236
fission-0236
fission-0236
fission-0236
fission-0236
fission-0236
fission-0236
fission-0236
fission-0236
fission-0236
fission-0236
fission-0236
fission-0236
fission-0236
fission-0236
fission-0236
fission-0236
fission-0236
fission-0236
fission-0236
fission-0236
fission-0236
fission-0236
fission-0236
fission-0236
fission-0236
fission-0236
fission-0236
fission-0236
fission-0236
fission-0236
fission-0233
fission-0233
fission-0233
fission-0233
fission-0233
fission-0233
fission-0233
fission-0233
fission-0233
fission-0233
fission-0233
fission-0233
fission-0233
fission-0233
fission-0233
fission-0233
fission-0233
fission-0233
fission-0233
fission-0233
fission-0233
fission-0233
fission-0233
fission-0233
fission-0233
fission-0233
fission-0233
fission-0233
fission-0233
fission-0233
fission-0233
fission-0233
fission-0235
fission-0235
fission-0235
fission-0235
fission-0235
fission-0235
fission-0235
fission-0235
fission-0235
fission-0235
fission-0235
fission-0235
fission-0235
fission-0235
fission-0235
fission-0235
fission-0235
fission-0235
fission-0235
fission-0235
fission-0235
fission-0235
fission-0235
fission-0235
fission-0235
fission-0235
fission-0235
fission-0235
fission-0235
fission-0235
fission-0235
fission-0235
fission-0239
fission-0239
fission-0239
fission-0239
fission-0239
fission-0239
fission-0239
fission-0239
fission-0239
fission-0239
fission-0239
fission-0239
fission-0239
fission-0239
fission-0239
fission-0239
fission-0239
fission-0239
fission-0239
fission-0239
fission-0239
fission-0239
fission-0239
fission-0239
fission-0239
fission-0239
fission-0239
fission-0239
fission-0239
fission-0239
fission-0239
fission-0239
fission-0240
fission-0240
fission-0240
fission-0240
fission-0240
fission-0240
fission-0240
fission-0240
fission-0240
fission-0240
fission-0240
fission-0240
fission-0240
fission-0240
fission-0240
fission-0240
fission-0240
fission-0240
fission-0240
fission-0240
fission-0240
fission-0240
fission-0240
fission-0240
fission-0240
fission-0240
fission-0240
fission-0240
fission-0240
fission-0240
fission-0240
fission-0240
fission-0241
fission-0241
fission-0241
fission-0241
fission-0241
fission-0241
fission-0241
fission-0241
fission-0241
fission-0241
fission-0241
fission-0241
fission-0241
fission-0241
fission-0241
fission-0241
fission-0241
fission-0241
fission-0241
fission-0241
fission-0241
fission-0241
fission-0241
fission-0241
fission-0241
fission-0241
fission-0241
fission-0241
fission-0241
fission-0241
fission-0241
fission-0241
fission-0226
fission-0226
fission-0226
fission-0226
fission-0226
fission-0226
fission-0226
fission-0226
fission-0226
fission-0226
fission-0226
fission-0226
fission-0226
fission-0226
fission-0226
fission-0226
fission-0226
fission-0226
fission-0226
fission-0226
fission-0226
fission-0226
fission-0226
fission-0226
fission-0226
fission-0226
fission-0226
fission-0226
fission-0226
fission-0226
fission-0226
fission-0226
fission-0227
fission-0227
fission-0227
fission-0227
fission-0227
fission-0227
fission-0227
fission-0227
fission-0227
fission-0227
fission-0227
fission-0227
fission-0227
fission-0227
fission-0227
fission-0227
fission-0227
fission-0227
fission-0227
fission-0227
fission-0227
fission-0227
fission-0227
fission-0227
fission-0227
fission-0227
fission-0227
fission-0227
fission-0227
fission-0227
fission-0227
fission-0227
fission-0228
fission-0228
fission-0228
fission-0228
fission-0228
fission-0228
fission-0228
fission-0228
fission-0228
fission-0228
fission-0228
fission-0228
fission-0228
fission-0228
fission-0228
fission-0228
fission-0228
fission-0228
fission-0228
fission-0228
fission-0228
fission-0228
fission-0228
fission-0228
fission-0228
fission-0228
fission-0228
fission-0228
fission-0228
fission-0228
fission-0228
fission-0228
fission-0230
fission-0230
fission-0230
fission-0230
fission-0230
fission-0230
fission-0230
fission-0230
fission-0230
fission-0230
fission-0230
fission-0230
fission-0230
fission-0230
fission-0230
fission-0230
fission-0230
fission-0230
fission-0230
fission-0230
fission-0230
fission-0230
fission-0230
fission-0230
fission-0230
fission-0230
fission-0230
fission-0230
fission-0230
fission-0230
fission-0230
fission-0230
fission-0232
fission-0232
fission-0232
fission-0232
fission-0232
fission-0232
fission-0232
fission-0232
fission-0232
fission-0232
fission-0232
fission-0232
fission-0232
fission-0232
fission-0232
fission-0232
fission-0232
fission-0232
fission-0232
fission-0232
fission-0232
fission-0232
fission-0232
fission-0232
fission-0232
fission-0232
fission-0232
fission-0232
fission-0232
fission-0232
fission-0232
fission-0232
fission-0246
fission-0246
fission-0246
fission-0246
fission-0246
fission-0246
fission-0246
fission-0246
fission-0246
fission-0246
fission-0246
fission-0246
fission-0246
fission-0246
fission-0246
fission-0246
fission-0246
fission-0246
fission-0246
fission-0246
fission-0246
fission-0246
fission-0246
fission-0246
fission-0246
fission-0246
fission-0246
fission-0246
fission-0246
fission-0246
fission-0246
fission-0246
fission-0247
fission-0247
fission-0247
fission-0247
fission-0247
fission-0247
fission-0247
fission-0247
fission-0247
fission-0247
fission-0247
fission-0247
fission-0247
fission-0247
fission-0247
fission-0247
fission-0247
fission-0247
fission-0247
fission-0247
fission-0247
fission-0247
fission-0247
fission-0247
fission-0247
fission-0247
fission-0247
fission-0247
fission-0247
fission-0247
fission-0247
fission-0247
fission-0248
fission-0248
fission-0248
fission-0248
fission-0248
fission-0248
fission-0248
fission-0248
fission-0248
fission-0248
fission-0248
fission-0248
fission-0248
fission-0248
fission-0248
fission-0248
fission-0248
fission-0248
fission-0248
fission-0248
fission-0248
fission-0248
fission-0248
fission-0248
fission-0248
fission-0248
fission-0248
fission-0248
fission-0248
fission-0248
fission-0248
fission-0248

The following PBS extra args (PBS_EXTRA_ARGS) will be used: -P ldrd
The following lammps extra args (LAMMPS_EXTRA_ARGS) will be used:
LAMMPS (16 Feb 2016)
#log		log.c
units           metal
dimension       3
boundary        p p p
atom_style      atomic
shell         mkdir  cfg
shell         mkdir  dump

# ----------------------- ATOM DEFINITION & Force Field -------------
# ----------------------- ATOM DEFINITION ----------------------------
lattice         fcc 4.024845358 #origin 0.0 0.0 0.0 orient x 1 -1 0 orient y 1 1 -2 orient z 1 1 1
Lattice spacing in x,y,z = 4.02485 4.02485 4.02485
variable        Lx equal 52
variable        Ly equal 2
variable        Lz equal 208
variable        boxLZ equal 218
region          SYSTEM block -52 52 -2 2 -208 0 units lattice
region          BOX block -52 52 -2 2 -218 5 units lattice
create_box      1 BOX
Created orthogonal box = (-209.292 -8.04969 -877.416) to (209.292 8.04969 20.1242)
create_atoms    1 region SYSTEM
Created 346944 atoms

delete_atoms     porosity BOX 0.0001 23397    ##random seed <RAND1>
Deleted 41 atoms, new total = 346903

#---------------------------------------------------------------------------------
pair_style      eam/alloy
pair_coeff  	  * * Al_wkg_MSMSE_2009.set Al

#----------------------------------------------------------------------------------
velocity       all create 300.0 21055 mom yes rot yes dist gaussian         ##random seed <RAND2>

fix             1 all npt temp 300 300 0.1 iso 0.0 0.0 2
run      10000
  1 neighbor list requests
  update every 1 steps, delay 10 steps, check yes
Setting up Verlet run ...
  Unit style  : metal
  Current step: 0
  Time step   : 0.001
Step Temp E_pair E_mol TotEng Press Volume
0          300   -917098.18            0      -903646    2146.0957    6048473.6
Loop time of 61.1398 on 512 procs for 10000 steps with 346903 atoms

unfix 1

fix            2 all nvt temp 300.0 300.0 0.1

run      10000
Setting up Verlet run ...
  Unit style  : metal
  Current step: 10000
  Time step   : 0.001
Step Temp E_pair E_mol TotEng Press
10000    300.00525   -903033.16            0   -889580.74   -14.378635
Loop time of 59.799 on 512 procs for 10000 steps with 346903 atoms

reset_timestep 0
unfix    2
#---------------------- DEFINE Laser GERION and GROUP ----------------
region       R1  block -75  75  INF  INF  INF  5  units box
group        G1 region R1
123534 atoms in group G1
group        G2 subtract all G1
223369 atoms in group G2

#define     temperature/pressure calculation  group
variable    x1atom atom "x>=0  &&  x<4 &&  z>-40 && z<1"     ##NEW!!!!!!!!!!!!
variable    x2atom atom "x>=-209.292  &&  x<-205.292 &&  z>-40 && z<1"
variable    x3atom atom "x>=0  &&  x<4 &&  z>-20 && z<1"
variable    x4atom atom "x>=-209.292  &&  x<-205.292 &&  z>-20 && z<1"
variable    x5atom atom "x>=196  &&  x<200 &&  z>-40 && z<1"

group       x1atom variable x1atom
144 atoms in group x1atom
group       x2atom variable x2atom
160 atoms in group x2atom
group       x3atom variable x3atom
71 atoms in group x3atom
group       x4atom variable x4atom
80 atoms in group x4atom
group       x5atom variable x5atom
160 atoms in group x5atom

compute      COM1x x1atom com
compute      COM2x x2atom com
compute      COM3x x3atom com
compute      COM4x x4atom com
compute      COM5x x5atom com

compute      COMall all com

#Temperature profile
#variable      Tprofile atom 300*(1+(step/5000)*2.5*exp(z/40))
variable      Tprofile atom 300*(1+(step/5000)*2.5*exp(z/75))

# ------------------------- SETTINGS ---------------------------------
thermo          100
thermo_style    custom step lx pxx pyy pzz temp c_COM1x[1] c_COM1x[2] c_COM1x[3] c_COM2x[1] c_COM2x[2] c_COM2x[3] c_COM3x[1] c_COM3x[2] c_COM3x[3] c_COM4x[1] c_COM4x[2] c_COM4x[3]  c_COM5x[1] c_COM5x[2] c_COM5x[3] c_COMall[1] c_COMall[2] c_COMall[3]

timestep       0.002

compute dispall all displace/atom
# ---------------- Run Laser Material Interaction --------------------
#dump          1 all custom 1000 dump/z1dump.atom id type x y z c_dispall[1]  c_dispall[2]  c_dispall[3] c_dispall[4]
#dump          2 all cfg 100 cfg/*.cfg mass type xs ys zs
#dump_modify   2 element Al

#relax for 2 PS
#fix           1 all nvt temp 300.0 300.0 0.1
#run  1000
#unfix         1

fix           1  all nve
fix           3temp  G1  langevin  v_Tprofile  0  0.1  378411   #TEST ALL
run           5000
Setting up Verlet run ...
  Unit style  : metal
  Current step: 0
  Time step   : 0.002
Step Lx Pxx Pyy Pzz Temp COM1x[1] COM1x[2] COM1x[3] COM2x[1] COM2x[2] COM2x[3] COM3x[1] COM3x[2] COM3x[3] COM4x[1] COM4x[2] COM4x[3] COM5x[1] COM5x[2] COM5x[3] COMall[1 COMall[2 COMall[3
0    421.63495    33.798312    54.141927   -180.24161    299.48427    2.0385764   -1.0805333   -20.051069     -207.883  -0.92878009   -19.760203    1.7892642   -1.0845818   -9.6481027   -207.89752  -0.85694355   -9.6278047    197.59149   -1.0107192   -19.782983   -1.0129641   -1.0133849   -418.51031
Averages over the last 26 of 51 rows, steps 2500 to 5000:
Lx Pxx Pyy Pzz Temp COM1x[1] COM1x[2] COM1x[3] COM2x[1] COM2x[2] COM2x[3] COM3x[1] COM3x[2] COM3x[3] COM4x[1] COM4x[2] COM4x[3] COM5x[1] COM5x[2] COM5x[3] COMall[1 COMall[2 COMall[3
421.635 1074.03 1036.35 655.202 322.12 1.9544 -1.05956 -19.7385 -207.864 -0.971789 -19.8583 1.63573 -1.04937 -9.1524 -207.865 -0.976822 -9.69105 197.626 -0.970939 -19.8441 -1.01243 -0.990152 -418.592
Loop time of 31.3093 on 512 procs for 5000 steps with 346903 atoms

variable  com1_x equal "c_COM1x[1]"
variable  com1_y equal "c_COM1x[2]"
variable  com1_z equal "c_COM1x[3]"
variable  com2_x equal "c_COM2x[1]"
variable  com2_y equal "c_COM2x[2]"
variable  com2_z equal "c_COM2x[3]"
variable  com3_x equal "c_COM3x[1]"
variable  com3_y equal "c_COM3x[2]"
variable  com3_z equal "c_COM3x[3]"
variable  com4_x equal "c_COM4x[1]"
variable  com4_y equal "c_COM4x[2]"
variable  com4_z equal "c_COM4x[3]"
variable  com5_x equal "c_COM5x[1]"
variable  com5_y equal "c_COM5x[2]"
variable  com5_z equal "c_COM5x[3]"
variable  comall_x equal "c_COMall[1]"
variable  comall_y equal "c_COMall[2]"
variable  comall_z equal "c_COMall[3]"

#-------------------------- Wave Propagation -------------------------
unfix        3temp
run          1000000
Setting up Verlet run ...
  Unit style  : metal
  Current step: 5000
  Time step   : 0.002
Step Lx Pxx Pyy Pzz Temp COM1x[1] COM1x[2] COM1x[3] COM2x[1] COM2x[2] COM2x[3] COM3x[1] COM3x[2] COM3x[3] COM4x[1] COM4x[2] COM4x[3] COM5x[1] COM5x[2] COM5x[3] COMall[1 COMall[2 COMall[3
5000    421.63495    1370.3495    1280.2816    838.99494    329.80733    1.9288134  -0.96617358   -19.676914   -207.81876   -1.0283691   -19.686913     1.590411  -0.94413229   -9.0422957   -207.83117   -1.0764018   -9.5091328    197.71587   -1.0656283   -19.643087   -1.0118131  -0.99255438   -418.60936
Averages over the last 5001 of 10001 rows, steps 505000 to 1005000:
Lx Pxx Pyy Pzz Temp COM1x[1] COM1x[2] COM1x[3] COM2x[1] COM2x[2] COM2x[3] COM3x[1] COM3x[2] COM3x[3] COM4x[1] COM4x[2] COM4x[3] COM5x[1] COM5x[2] COM5x[3] COMall[1 COMall[2 COMall[3
421.635 929.907 907.885 -7.44742 330.58 -10.3311 -4.57585 -32.74 -220.193 -4.56134 -32.5029 -10.6452 -4.63319 -22.2944 -220.193 -4.56132 -22.3395 185.226 -4.56166 -32.5019 -13.4299 -4.56122 -431.863
Loop time of 5816.64 on 512 procs for 1000000 steps with 346903 atoms
