fission-0308
fission-0308
fission-0308
fission-0308
fission-0308
fission-0308
fission-0308
fission-0308
fission-0308
fission-0308
fission-0308
fission-0308
fission-0308
fission-0308
fission-0308
fission-0308
fission-0308
fission-0308
fission-0308
fission-0308
fission-0308
fission-0308
fission-0308
fission-0308
fission-0308
fission-0308
fission-0308
fission-0308
fission-0308
fission-0308
fission-0308
fission-0308
fission-0313
fission-0313
fission-0313
fission-0313
fission-0313
fission-0313
fission-0313
fission-0313
fission-0313
fission-0313
fission-0313
fission-0313
fission-0313
fission-0313
fission-0313
fission-0313
fission-0313
fission-0313
fission-0313
fission-0313
fission-0313
fission-0313
fission-0313
fission-0313
fission-0313
fission-0313
fission-0313
fission-0313
fission-0313
fission-0313
fission-0313
fission-0313
fission-0325
fission-0325
fission-0325
fission-0325
fission-0325
fission-0325
fission-0325
fission-0325
fission-0325
fission-0325
fission-0325
fission-0325
fission-0325
fission-0325
fission-0325
fission-0325
fission-0325
fission-0325
fission-0325
fission-0325
fission-0325
fission-0325
fission-0325
fission-0325
fission-0325
fission-0325
fission-0325
fission-0325
fission-0325
fission-0325
fission-0325
fission-0325
fission-0312
fission-0312
fission-0312
fission-0312
fission-0312
fission-0312
fission-0312
fission-0312
fission-0312
fission-0312
fission-0312
fission-0312
fission-0312
fission-0312
fission-0312
fission-0312
fission-0312
fission-0312
fission-0312
fission-0312
fission-0312
fission-0312
fission-0312
fission-0312
fission-0312
fission-0312
fission-0312
fission-0312
fission-0312
fission-0312
fission-0312
fission-0312
fission-0315
fission-0315
fission-0315
fission-0315
fission-0315
fission-0315
fission-0315
fission-0315
fission-0315
fission-0315
fission-0315
fission-0315
fission-0315
fission-0315
fission-0315
fission-0315
fission-0315
fission-0315
fission-0315
fission-0315
fission-0315
fission-0315
fission-0315
fission-0315
fission-0315
fission-0315
fission-0315
fission-0315
fission-0315
fission-0315
fission-0315
fission-0315
fission-0316
fission-0316
fission-0316
fission-0316
fission-0316
fission-0316
fission-0316
fission-0316
fission-0316
fission-0316
fission-0316
fission-0316
fission-0316
fission-0316
fission-0316
fission-0316
fission-0316
fission-0316
fission-0316
fission-0316
fission-0316
fission-0316
fission-0316
fission-0316
fission-0316
fission-0316
fission-0316
fission-0316
fission-0316
fission-0316
fission-0316
fission-0316
fission-0317
fission-0317
fission-0317
fission-0317
fission-0317
fission-0317
fission-0317
fission-0317
fission-0317
fission-0317
fission-0317
fission-0317
fission-0317
fission-0317
fission-0317
fission-0317
fission-0317
fission-0317
fission-0317
fission-0317
fission-0317
fission-0317
fission-0317
fission-0317
fission-0317
fission-0317
fission-0317
fission-0317
fission-0317
fission-0317
fission-0317
fission-0317
fission-0321
fission-0321
fission-0321
fission-0321
fission-0321
fission-0321
fission-0321
fission-0321
fission-0321
fission-0321
fission-0321
fission-0321
fission-0321
fission-0321
fission-0321
fission-0321
fission-0321
fission-0321
fission-0321
fission-0321
fission-0321
fission-0321
fission-0321
fission-0321
fission-0321
fission-0321
fission-0321
fission-0321
fission-0321
fission-0321
fission-0321
fission-0321
fission-0327
fission-0327
fission-0327
fission-0327
fission-0327
fission-0327
fission-0327
fission-0327
fission-0327
fission-0327
fission-0327
fission-0327
fission-0327
fission-0327
fission-0327
fission-0327
fission-0327
fission-0327
fission-0327
fission-0327
fission-0327
fission-0327
fission-0327
fission-0327
fission-0327
fission-0327
fission-0327
fission-0327
fission-0327
fission-0327
fission-0327
fission-0327
fission-0328
fission-0328
fission-0328
fission-0328
fission-0328
fission-0328
fission-0328
fission-0328
fission-0328
fission-0328
fission-0328
fission-0328
fission-0328
fission-0328
fission-0328
fission-0328
fission-0328
fission-0328
fission-0328
fission-0328
fission-0328
fission-0328
fission-0328
fission-0328
fission-0328
fission-0328
fission-0328
fission-0328
fission-0328
fission-0328
fission-0328
fission-0328
fission-0106
fission-0106
fission-0106
fission-0106
fission-0106
fission-0106
fission-0106
fission-0106
fission-0106
fission-0106
fission-0106
fission-0106
fission-0106
fission-0106
fission-0106
fission-0106
fission-0106
fission-0106
fission-0106
fission-0106
fission-0106
fission-0106
fission-0106
fission-0106
fission-0106
fission-0106
fission-0106
fission-0106
fission-0106
fission-0106
fission-0106
fission-0106
fission-0108
fission-0108
fission-0108
fission-0108
fission-0108
fission-0108
fission-0108
fission-0108
fission-0108
fission-0108
fission-0108
fission-0108
fission-0108
fission-0108
fission-0108
fission-0108
fission-0108
fission-0108
fission-0108
fission-0108
fission-0108
fission-0108
fission-0108
fission-0108
fission-0108
fission-0108
fission-0108
fission-0108
fission-0108
fission-0108
fission-0108
fission-0108
fission-0109
fission-0109
fission-0109
fission-0109
fission-0109
fission-0109
fission-0109
fission-0109
fission-0109
fission-0109
fission-0109
fission-0109
fission-0109
fission-0109
fission-0109
fission-0109
fission-0109
fission-0109
fission-0109
fission-0109
fission-0109
fission-0109
fission-0109
fission-0109
fission-0109
fission-0109
fission-0109
fission-0109
fission-0109
fission-0109
fission-0109
fission-0109
fission-0111
fission-0111
fission-0111
fission-0111
fission-0111
fission-0111
fission-0111
fission-0111
fission-0111
fission-0111
fission-0111
fission-0111
fission-0111
fission-0111
fission-0111
fission-0111
fission-0111
fission-0111
fission-0111
fission-0111
fission-0111
fission-0111
fission-0111
fission-0111
fission-0111
fission-0111
fission-0111
fission-0111
fission-0111
fission-0111
fission-0111
fission-0111
fission-0332
fission-0332
fission-0332
fission-0332
fission-0332
fission-0332
fission-0332
fission-0332
fission-0332
fission-0332
fission-0332
fission-0332
fission-0332
fission-0332
fission-0332
fission-0332
fission-0332
fission-0332
fission-0332
fission-0332
fission-0332
fission-0332
fission-0332
fission-0332
fission-0332
fission-0332
fission-0332
fission-0332
fission-0332
fission-0332
fission-0332
fission-0332
fission-0167
fission-0167
fission-0167
fission-0167
fission-0167
fission-0167
fission-0167
fission-0167
fission-0167
fission-0167
fission-0167
fission-0167
fission-0167
fission-0167
fission-0167
fission-0167
fission-0167
fission-0167
fission-0167
fission-0167
fission-0167
fission-0167
fission-0167
fission-0167
fission-0167
fission-0167
fission-0167
fission-0167
fission-0167
fission-0167
fission-0167
fission-0167

The following PBS extra args (PBS_EXTRA_ARGS) will be used: -P ldrd
The following lammps extra args (LAMMPS_EXTRA_ARGS) will be used:
LAMMPS (16 Feb 2016)
#log		log.c
units           metal
dimension       3
boundary        p p p
atom_style      atomic
shell         mkdir  cfg
shell         mkdir  dump

# ----------------------- ATOM DEFINITION & Force Field -------------
# ----------------------- ATOM DEFINITION ----------------------------
lattice         fcc 4.024845358 #origin 0.0 0.0 0.0 orient x 1 -1 0 orient y 1 1 -2 orient z 1 1 1
Lattice spacing in x,y,z = 4.02485 4.02485 4.02485
variable        Lx equal 52
variable        Ly equal 2
variable        Lz equal 208
variable        boxLZ equal 218
region          SYSTEM block -52 52 -2 2 -208 0 units lattice
region          BOX block -52 52 -2 2 -218 5 units lattice
create_box      1 BOX
Created orthogonal box = (-209.292 -8.04969 -877.416) to (209.292 8.04969 20.1242)
create_atoms    1 region SYSTEM
Created 346944 atoms

delete_atoms     porosity BOX 0.0001 16336    ##random seed <RAND1>
Deleted 38 atoms, new total = 346906

#---------------------------------------------------------------------------------
pair_style      eam/alloy
pair_coeff  	  * * Al_wkg_MSMSE_2009.set Al

#----------------------------------------------------------------------------------
velocity       all create 300.0 2414 mom yes rot yes dist gaussian         ##random seed <RAND2>

fix             1 all npt temp 300 300 0.1 iso 0.0 0.0 2
run      10000
  1 neighbor list requests
  update every 1 steps, delay 10 steps, check yes
Setting up Verlet run ...
  Unit style  : metal
  Current step: 0
  Time step   : 0.001
Step Temp E_pair E_mol TotEng Press Volume
0          300   -917108.76            0   -903656.47    2148.6008    6048473.6
Loop time of 64.8096 on 512 procs for 10000 steps with 346906 atoms

unfix 1

fix            2 all nvt temp 300.0 300.0 0.1

run      10000
Setting up Verlet run ...
  Unit style  : metal
  Current step: 10000
  Time step   : 0.001
Step Temp E_pair E_mol TotEng Press
10000    299.64789   -903007.65            0   -889571.15    33.206446
Loop time of 60.8594 on 512 procs for 10000 steps with 346906 atoms

reset_timestep 0
unfix    2
#---------------------- DEFINE Laser GERION and GROUP ----------------
region       R1  block -75  75  INF  INF  INF  5  units box
group        G1 region R1
123556 atoms in group G1
group        G2 subtract all G1
223350 atoms in group G2

#define     temperature/pressure calculation  group
variable    x1atom atom "x>=0  &&  x<4 &&  z>-40 && z<1"     ##NEW!!!!!!!!!!!!
variable    x2atom atom "x>=-209.292  &&  x<-205.292 &&  z>-40 && z<1"
variable    x3atom atom "x>=0  &&  x<4 &&  z>-20 && z<1"
variable    x4atom atom "x>=-209.292  &&  x<-205.292 &&  z>-20 && z<1"
variable    x5atom atom "x>=196  &&  x<200 &&  z>-40 && z<1"

group       x1atom variable x1atom
145 atoms in group x1atom
group       x2atom variable x2atom
160 atoms in group x2atom
group       x3atom variable x3atom
77 atoms in group x3atom
group       x4atom variable x4atom
80 atoms in group x4atom
group       x5atom variable x5atom
160 atoms in group x5atom

compute      COM1x x1atom com
compute      COM2x x2atom com
compute      COM3x x3atom com
compute      COM4x x4atom com
compute      COM5x x5atom com

compute      COMall all com

#Temperature profile
#variable      Tprofile atom 300*(1+(step/5000)*2.5*exp(z/40))
variable      Tprofile atom 300*(1+(step/5000)*2.5*exp(z/75))

# ------------------------- SETTINGS ---------------------------------
thermo          100
thermo_style    custom step lx pxx pyy pzz temp c_COM1x[1] c_COM1x[2] c_COM1x[3] c_COM2x[1] c_COM2x[2] c_COM2x[3] c_COM3x[1] c_COM3x[2] c_COM3x[3] c_COM4x[1] c_COM4x[2] c_COM4x[3]  c_COM5x[1] c_COM5x[2] c_COM5x[3] c_COMall[1] c_COMall[2] c_COMall[3]

timestep       0.002

compute dispall all displace/atom
# ---------------- Run Laser Material Interaction --------------------
#dump          1 all custom 1000 dump/z1dump.atom id type x y z c_dispall[1]  c_dispall[2]  c_dispall[3] c_dispall[4]
#dump          2 all cfg 100 cfg/*.cfg mass type xs ys zs
#dump_modify   2 element Al

#relax for 2 PS
#fix           1 all nvt temp 300.0 300.0 0.1
#run  1000
#unfix         1

fix           1  all nve
fix           3temp  G1  langevin  v_Tprofile  0  0.1  378411   #TEST ALL
run           5000
Setting up Verlet run ...
  Unit style  : metal
  Current step: 0
  Time step   : 0.002
Step Lx Pxx Pyy Pzz Temp COM1x[1] COM1x[2] COM1x[3] COM2x[1] COM2x[2] COM2x[3] COM3x[1] COM3x[2] COM3x[3] COM4x[1] COM4x[2] COM4x[3] COM5x[1] COM5x[2] COM5x[3] COMall[1 COMall[2 COMall[3
0     421.5553    247.75933    211.34167   -156.43634    299.84087    2.3731078   -1.0388176   -19.393745    -207.7983  -0.94037499   -19.685457    2.3490145   -1.1125841   -10.042479   -207.76266  -0.95901921   -9.5547861    197.51738  -0.92736818    -19.72433   -1.0127173   -1.0133599   -418.52403
Averages over the last 26 of 51 rows, steps 2500 to 5000:
Lx Pxx Pyy Pzz Temp COM1x[1] COM1x[2] COM1x[3] COM2x[1] COM2x[2] COM2x[3] COM3x[1] COM3x[2] COM3x[3] COM4x[1] COM4x[2] COM4x[3] COM5x[1] COM5x[2] COM5x[3] COMall[1 COMall[2 COMall[3
421.555 1319.59 1268.88 781.456 322.322 2.3315 -0.886574 -18.91 -207.801 -1.05941 -19.7776 2.26833 -0.967446 -9.38714 -207.799 -1.06139 -9.60654 197.615 -1.05914 -19.762 -1.00036 -0.989566 -418.556
Loop time of 30.7752 on 512 procs for 5000 steps with 346906 atoms

variable  com1_x equal "c_COM1x[1]"
variable  com1_y equal "c_COM1x[2]"
variable  com1_z equal "c_COM1x[3]"
variable  com2_x equal "c_COM2x[1]"
variable  com2_y equal "c_COM2x[2]"
variable  com2_z equal "c_COM2x[3]"
variable  com3_x equal "c_COM3x[1]"
variable  com3_y equal "c_COM3x[2]"
variable  com3_z equal "c_COM3x[3]"
variable  com4_x equal "c_COM4x[1]"
variable  com4_y equal "c_COM4x[2]"
variable  com4_z equal "c_COM4x[3]"
variable  com5_x equal "c_COM5x[1]"
variable  com5_y equal "c_COM5x[2]"
variable  com5_z equal "c_COM5x[3]"
variable  comall_x equal "c_COMall[1]"
variable  comall_y equal "c_COMall[2]"
variable  comall_z equal "c_COMall[3]"

#-------------------------- Wave Propagation -------------------------
unfix        3temp
run          1000000
Setting up Verlet run ...
  Unit style  : metal
  Current step: 5000
  Time step   : 0.002
Step Lx Pxx Pyy Pzz Temp COM1x[1] COM1x[2] COM1x[3] COM2x[1] COM2x[2] COM2x[3] COM3x[1] COM3x[2] COM3x[3] COM4x[1] COM4x[2] COM4x[3] COM5x[1] COM5x[2] COM5x[3] COMall[1 COMall[2 COMall[3
5000     421.5553    1579.9679    1535.1432    909.01998     330.0529    2.4017018  -0.79234348     -18.6147   -207.79142   -1.1085144   -19.619377    2.3605772  -0.88869698   -9.0399767   -207.80267   -1.1088624   -9.4108073    197.65424    -1.035404   -19.546383   -1.0069766  -0.99420064    -418.5682
Averages over the last 5001 of 10001 rows, steps 505000 to 1005000:
Lx Pxx Pyy Pzz Temp COM1x[1] COM1x[2] COM1x[3] COM2x[1] COM2x[2] COM2x[3] COM3x[1] COM3x[2] COM3x[3] COM4x[1] COM4x[2] COM4x[3] COM5x[1] COM5x[2] COM5x[3] COMall[1 COMall[2 COMall[3
421.555 1115.36 1092.58 -7.82389 330.672 -6.56038 -2.9424 -32.5073 -216.758 -3.14565 -33.034 -6.60026 -3.02672 -23.1196 -216.757 -3.14579 -22.871 188.583 -3.1461 -33.0336 -10.0346 -3.14666 -432.485
Loop time of 6079.32 on 512 procs for 1000000 steps with 346906 atoms
