fission-0167
fission-0167
fission-0167
fission-0167
fission-0167
fission-0167
fission-0167
fission-0167
fission-0167
fission-0167
fission-0167
fission-0167
fission-0167
fission-0167
fission-0167
fission-0167
fission-0167
fission-0167
fission-0167
fission-0167
fission-0167
fission-0167
fission-0167
fission-0167
fission-0167
fission-0167
fission-0167
fission-0167
fission-0167
fission-0167
fission-0167
fission-0167
fission-0381
fission-0381
fission-0381
fission-0381
fission-0381
fission-0381
fission-0381
fission-0381
fission-0381
fission-0381
fission-0381
fission-0381
fission-0381
fission-0381
fission-0381
fission-0381
fission-0381
fission-0381
fission-0381
fission-0381
fission-0381
fission-0381
fission-0381
fission-0381
fission-0381
fission-0381
fission-0381
fission-0381
fission-0381
fission-0381
fission-0381
fission-0381
fission-0191
fission-0191
fission-0191
fission-0191
fission-0191
fission-0191
fission-0191
fission-0191
fission-0191
fission-0191
fission-0191
fission-0191
fission-0191
fission-0191
fission-0191
fission-0191
fission-0191
fission-0191
fission-0191
fission-0191
fission-0191
fission-0191
fission-0191
fission-0191
fission-0191
fission-0191
fission-0191
fission-0191
fission-0191
fission-0191
fission-0191
fission-0191
fission-0197
fission-0197
fission-0197
fission-0197
fission-0197
fission-0197
fission-0197
fission-0197
fission-0197
fission-0197
fission-0197
fission-0197
fission-0197
fission-0197
fission-0197
fission-0197
fission-0197
fission-0197
fission-0197
fission-0197
fission-0197
fission-0197
fission-0197
fission-0197
fission-0197
fission-0197
fission-0197
fission-0197
fission-0197
fission-0197
fission-0197
fission-0197
fission-0175
fission-0175
fission-0175
fission-0175
fission-0175
fission-0175
fission-0175
fission-0175
fission-0175
fission-0175
fission-0175
fission-0175
fission-0175
fission-0175
fission-0175
fission-0175
fission-0175
fission-0175
fission-0175
fission-0175
fission-0175
fission-0175
fission-0175
fission-0175
fission-0175
fission-0175
fission-0175
fission-0175
fission-0175
fission-0175
fission-0175
fission-0175
fission-0242
fission-0242
fission-0242
fission-0242
fission-0242
fission-0242
fission-0242
fission-0242
fission-0242
fission-0242
fission-0242
fission-0242
fission-0242
fission-0242
fission-0242
fission-0242
fission-0242
fission-0242
fission-0242
fission-0242
fission-0242
fission-0242
fission-0242
fission-0242
fission-0242
fission-0242
fission-0242
fission-0242
fission-0242
fission-0242
fission-0242
fission-0242
fission-0216
fission-0216
fission-0216
fission-0216
fission-0216
fission-0216
fission-0216
fission-0216
fission-0216
fission-0216
fission-0216
fission-0216
fission-0216
fission-0216
fission-0216
fission-0216
fission-0216
fission-0216
fission-0216
fission-0216
fission-0216
fission-0216
fission-0216
fission-0216
fission-0216
fission-0216
fission-0216
fission-0216
fission-0216
fission-0216
fission-0216
fission-0216
fission-0077
fission-0077
fission-0077
fission-0077
fission-0077
fission-0077
fission-0077
fission-0077
fission-0077
fission-0077
fission-0077
fission-0077
fission-0077
fission-0077
fission-0077
fission-0077
fission-0077
fission-0077
fission-0077
fission-0077
fission-0077
fission-0077
fission-0077
fission-0077
fission-0077
fission-0077
fission-0077
fission-0077
fission-0077
fission-0077
fission-0077
fission-0077
fission-0255
fission-0255
fission-0255
fission-0255
fission-0255
fission-0255
fission-0255
fission-0255
fission-0255
fission-0255
fission-0255
fission-0255
fission-0255
fission-0255
fission-0255
fission-0255
fission-0255
fission-0255
fission-0255
fission-0255
fission-0255
fission-0255
fission-0255
fission-0255
fission-0255
fission-0255
fission-0255
fission-0255
fission-0255
fission-0255
fission-0255
fission-0255
fission-0282
fission-0282
fission-0282
fission-0282
fission-0282
fission-0282
fission-0282
fission-0282
fission-0282
fission-0282
fission-0282
fission-0282
fission-0282
fission-0282
fission-0282
fission-0282
fission-0282
fission-0282
fission-0282
fission-0282
fission-0282
fission-0282
fission-0282
fission-0282
fission-0282
fission-0282
fission-0282
fission-0282
fission-0282
fission-0282
fission-0282
fission-0282
fission-0264
fission-0264
fission-0264
fission-0264
fission-0264
fission-0264
fission-0264
fission-0264
fission-0264
fission-0264
fission-0264
fission-0264
fission-0264
fission-0264
fission-0264
fission-0264
fission-0264
fission-0264
fission-0264
fission-0264
fission-0264
fission-0264
fission-0264
fission-0264
fission-0264
fission-0264
fission-0264
fission-0264
fission-0264
fission-0264
fission-0264
fission-0264
fission-0270
fission-0270
fission-0270
fission-0270
fission-0270
fission-0270
fission-0270
fission-0270
fission-0270
fission-0270
fission-0270
fission-0270
fission-0270
fission-0270
fission-0270
fission-0270
fission-0270
fission-0270
fission-0270
fission-0270
fission-0270
fission-0270
fission-0270
fission-0270
fission-0270
fission-0270
fission-0270
fission-0270
fission-0270
fission-0270
fission-0270
fission-0270
fission-0389
fission-0389
fission-0389
fission-0389
fission-0389
fission-0389
fission-0389
fission-0389
fission-0389
fission-0389
fission-0389
fission-0389
fission-0389
fission-0389
fission-0389
fission-0389
fission-0389
fission-0389
fission-0389
fission-0389
fission-0389
fission-0389
fission-0389
fission-0389
fission-0389
fission-0389
fission-0389
fission-0389
fission-0389
fission-0389
fission-0389
fission-0389
fission-0209
fission-0209
fission-0209
fission-0209
fission-0209
fission-0209
fission-0209
fission-0209
fission-0209
fission-0209
fission-0209
fission-0209
fission-0209
fission-0209
fission-0209
fission-0209
fission-0209
fission-0209
fission-0209
fission-0209
fission-0209
fission-0209
fission-0209
fission-0209
fission-0209
fission-0209
fission-0209
fission-0209
fission-0209
fission-0209
fission-0209
fission-0209
fission-0339
fission-0339
fission-0339
fission-0339
fission-0339
fission-0339
fission-0339
fission-0339
fission-0339
fission-0339
fission-0339
fission-0339
fission-0339
fission-0339
fission-0339
fission-0339
fission-0339
fission-0339
fission-0339
fission-0339
fission-0339
fission-0339
fission-0339
fission-0339
fission-0339
fission-0339
fission-0339
fission-0339
fission-0339
fission-0339
fission-0339
fission-0339
fission-0218
fission-0218
fission-0218
fission-0218
fission-0218
fission-0218
fission-0218
fission-0218
fission-0218
fission-0218
fission-0218
fission-0218
fission-0218
fission-0218
fission-0218
fission-0218
fission-0218
fission-0218
fission-0218
fission-0218
fission-0218
fission-0218
fission-0218
fission-0218
fission-0218
fission-0218
fission-0218
fission-0218
fission-0218
fission-0218
fission-0218
fission-0218

The following PBS extra args (PBS_EXTRA_ARGS) will be used: -P ldrd
The following lammps extra args (LAMMPS_EXTRA_ARGS) will be used:
LAMMPS (16 Feb 2016)
#log		log.c
units           metal
dimension       3
boundary        p p p
atom_style      atomic
shell         mkdir  cfg
shell         mkdir  dump

# ----------------------- ATOM DEFINITION & Force Field -------------
lattice         fcc 3.615 #origin 0.0 0.0 0.0 orient x 1 -1 0 orient y 1 1 -2 orient z 1 1 1
Lattice spacing in x,y,z = 3.615 3.615 3.615
variable        Lx equal 65
variable        Ly equal 3
variable        Lz equal 260
variable        boxLZ equal 270
region          SYSTEM block -65 65 -3 3 -260 0 units lattice
region          BOX block -65 65 -3 3 -270 5 units lattice
create_box      1 BOX
Created orthogonal box = (-234.975 -10.845 -976.05) to (234.975 10.845 18.075)
create_atoms    1 region SYSTEM
Created 812760 atoms

delete_atoms     porosity BOX 0.005 9634
Deleted 3956 atoms, new total = 808804

#---------------------------------------------------------------------

pair_style      eam/alloy
pair_coeff  	  * * Cu01.eam.alloy Cu

#----------------------------------------------------------------------
velocity       all create 300.0 13186 mom yes rot yes dist gaussian
fix             1 all npt temp 300 300 0.1 iso 0.0 0.0 2
run      10000
  1 neighbor list requests
  update every 1 steps, delay 10 steps, check yes
Setting up Verlet run ...
  Unit style  : metal
  Current step: 0
  Time step   : 0.001
Step Temp E_pair E_mol TotEng Press Volume
0          300   -2856280.1            0   -2824916.3    1505.2838     10133330
Loop time of 128.588 on 512 procs for 10000 steps with 808804 atoms

unfix 1

fix            2 all nvt temp 300.0 300.0 0.1

run      10000
Setting up Verlet run ...
  Unit style  : metal
  Current step: 10000
  Time step   : 0.001
Step Temp E_pair E_mol TotEng Press
10000    299.72648   -2824455.7            0   -2793120.5    36.251779
Loop time of 124.127 on 512 procs for 10000 steps with 808804 atoms

reset_timestep 0
unfix    2
#---------------------- DEFINE Laser GERION and GROUP ----------------
region       R1  block -75  75  INF  INF  INF  5  units box
group        G1 region R1
258195 atoms in group G1
group        G2 subtract all G1
550609 atoms in group G2

#define     temperature/pressure calculation  group
variable    x1atom atom "x>=0  &&  x<4 &&  z>-40 && z<1"     ##NEW!!!!!!!!!!!!
variable    x2atom atom "x>=-234.98  &&  x<-230.98 &&  z>-40 && z<1"
variable    x3atom atom "x>=0  &&  x<4 &&  z>-20 && z<1"
variable    x4atom atom "x>=-234.98  &&  x<-230.98 &&  z>-20 && z<1"
variable    x5atom atom "x>=196  &&  x<200 &&  z>-40 && z<1"

group       x1atom variable x1atom
395 atoms in group x1atom
group       x2atom variable x2atom
274 atoms in group x2atom
group       x3atom variable x3atom
208 atoms in group x3atom
group       x4atom variable x4atom
143 atoms in group x4atom
group       x5atom variable x5atom
297 atoms in group x5atom

compute      COM1x x1atom com
compute      COM2x x2atom com
compute      COM3x x3atom com
compute      COM4x x4atom com
compute      COM5x x5atom com

compute      COMall all com

#Temperature profile
#variable      Tprofile atom 300*(1+(step/5000)*2.5*exp(z/40))
#variable tmp equal "lz"
variable      Tprofile atom  300+600*(step/5000)*exp(z/40)*exp(-x*x/1289)

# ------------------------- SETTINGS ---------------------------------
thermo          100
thermo_style    custom step lx pxx pyy pzz temp c_COM1x[1] c_COM1x[2] c_COM1x[3] c_COM2x[1] c_COM2x[2] c_COM2x[3] c_COM3x[1] c_COM3x[2] c_COM3x[3] c_COM4x[1] c_COM4x[2] c_COM4x[3]  c_COM5x[1] c_COM5x[2] c_COM5x[3] c_COMall[1] c_COMall[2] c_COMall[3]

timestep       0.002

compute dispall all displace/atom
# ---------------- Run Laser Material Interaction --------------------
#dump          1 all custom 1000 dump/z1dump.atom id type x y z c_dispall[1]  c_dispall[2]  c_dispall[3] c_dispall[4]
#dump          2 all cfg 100 cfg/*.cfg mass type xs ys zs
#dump_modify   2 element Al

#relax for 2 PS
#fix           1 all nvt temp 300.0 300.0 0.1
#run  1000
#unfix         1

fix           1  all nve
fix           3temp  all  langevin  v_Tprofile  0  0.1  378411   #TEST ALL
run           5000
Setting up Verlet run ...
  Unit style  : metal
  Current step: 0
  Time step   : 0.002
Step Lx Pxx Pyy Pzz Temp COM1x[1] COM1x[2] COM1x[3] COM2x[1] COM2x[2] COM2x[3] COM3x[1] COM3x[2] COM3x[3] COM4x[1] COM4x[2] COM4x[3] COM5x[1] COM5x[2] COM5x[3] COMall[1 COMall[2 COMall[3
0    471.83824   -447.22361   -395.51932     -422.603    300.48771    1.9856353  -0.93456943   -19.369478   -233.28198  -0.73450493   -19.487558    1.9734967   -1.0250936   -9.6583313   -233.27652  -0.72354505    -9.532344    198.44059  -0.86687817     -18.7297  -0.90513298  -0.90725109   -469.93489
Averages over the last 26 of 51 rows, steps 2500 to 5000:
Lx Pxx Pyy Pzz Temp COM1x[1] COM1x[2] COM1x[3] COM2x[1] COM2x[2] COM2x[3] COM3x[1] COM3x[2] COM3x[3] COM4x[1] COM4x[2] COM4x[3] COM5x[1] COM5x[2] COM5x[3] COMall[1 COMall[2 COMall[3
471.838 -326.423 -313.272 -348.431 302.758 1.96415 -0.924005 -19.2691 -233.242 -0.783188 -19.4342 1.94499 -0.99865 -9.48629 -233.229 -0.810682 -9.45758 198.464 -0.798563 -18.7358 -0.90678 -0.907003 -469.936
Loop time of 66.0907 on 512 procs for 5000 steps with 808804 atoms

variable  com1_x equal "c_COM1x[1]"
variable  com1_y equal "c_COM1x[2]"
variable  com1_z equal "c_COM1x[3]"
variable  com2_x equal "c_COM2x[1]"
variable  com2_y equal "c_COM2x[2]"
variable  com2_z equal "c_COM2x[3]"
variable  com3_x equal "c_COM3x[1]"
variable  com3_y equal "c_COM3x[2]"
variable  com3_z equal "c_COM3x[3]"
variable  com4_x equal "c_COM4x[1]"
variable  com4_y equal "c_COM4x[2]"
variable  com4_z equal "c_COM4x[3]"
variable  com5_x equal "c_COM5x[1]"
variable  com5_y equal "c_COM5x[2]"
variable  com5_z equal "c_COM5x[3]"
variable  comall_x equal "c_COMall[1]"
variable  comall_y equal "c_COMall[2]"
variable  comall_z equal "c_COMall[3]"

#-------------------------- Wave Propagation -------------------------
unfix        3temp
run          1000000
Setting up Verlet run ...
  Unit style  : metal
  Current step: 5000
  Time step   : 0.002
Step Lx Pxx Pyy Pzz Temp COM1x[1] COM1x[2] COM1x[3] COM2x[1] COM2x[2] COM2x[3] COM3x[1] COM3x[2] COM3x[3] COM4x[1] COM4x[2] COM4x[3] COM5x[1] COM5x[2] COM5x[3] COMall[1 COMall[2 COMall[3
5000    471.83824    -282.8896   -261.29197   -320.06026    303.44544    1.9637349  -0.90232089   -19.246131   -233.24344  -0.79292995   -19.429567     1.959299  -0.98914664   -9.4740604   -233.24022  -0.82085288   -9.4499228    198.48266  -0.82234793   -18.728163  -0.90623096  -0.90860556   -469.93869
Averages over the last 5001 of 10001 rows, steps 505000 to 1005000:
Lx Pxx Pyy Pzz Temp COM1x[1] COM1x[2] COM1x[3] COM2x[1] COM2x[2] COM2x[3] COM3x[1] COM3x[2] COM3x[3] COM4x[1] COM4x[2] COM4x[3] COM5x[1] COM5x[2] COM5x[3] COMall[1 COMall[2 COMall[3
471.838 -56.195 -51.9542 -3.69247 303.554 8.60112 -3.35464 -20.5011 -226.492 -3.21313 -20.5651 8.58572 -3.43592 -10.781 -226.487 -3.22244 -10.5882 205.227 -3.25187 -19.7996 5.79669 -3.27898 -470.95
Loop time of 12253.3 on 512 procs for 1000000 steps with 808804 atoms
