fission-0166
fission-0166
fission-0166
fission-0166
fission-0166
fission-0166
fission-0166
fission-0166
fission-0166
fission-0166
fission-0166
fission-0166
fission-0166
fission-0166
fission-0166
fission-0166
fission-0166
fission-0166
fission-0166
fission-0166
fission-0166
fission-0166
fission-0166
fission-0166
fission-0166
fission-0166
fission-0166
fission-0166
fission-0166
fission-0166
fission-0166
fission-0166
fission-0156
fission-0156
fission-0156
fission-0156
fission-0156
fission-0156
fission-0156
fission-0156
fission-0156
fission-0156
fission-0156
fission-0156
fission-0156
fission-0156
fission-0156
fission-0156
fission-0156
fission-0156
fission-0156
fission-0156
fission-0156
fission-0156
fission-0156
fission-0156
fission-0156
fission-0156
fission-0156
fission-0156
fission-0156
fission-0156
fission-0156
fission-0156
fission-0159
fission-0159
fission-0159
fission-0159
fission-0159
fission-0159
fission-0159
fission-0159
fission-0159
fission-0159
fission-0159
fission-0159
fission-0159
fission-0159
fission-0159
fission-0159
fission-0159
fission-0159
fission-0159
fission-0159
fission-0159
fission-0159
fission-0159
fission-0159
fission-0159
fission-0159
fission-0159
fission-0159
fission-0159
fission-0159
fission-0159
fission-0159
fission-0155
fission-0155
fission-0155
fission-0155
fission-0155
fission-0155
fission-0155
fission-0155
fission-0155
fission-0155
fission-0155
fission-0155
fission-0155
fission-0155
fission-0155
fission-0155
fission-0155
fission-0155
fission-0155
fission-0155
fission-0155
fission-0155
fission-0155
fission-0155
fission-0155
fission-0155
fission-0155
fission-0155
fission-0155
fission-0155
fission-0155
fission-0155
fission-0146
fission-0146
fission-0146
fission-0146
fission-0146
fission-0146
fission-0146
fission-0146
fission-0146
fission-0146
fission-0146
fission-0146
fission-0146
fission-0146
fission-0146
fission-0146
fission-0146
fission-0146
fission-0146
fission-0146
fission-0146
fission-0146
fission-0146
fission-0146
fission-0146
fission-0146
fission-0146
fission-0146
fission-0146
fission-0146
fission-0146
fission-0146
fission-0148
fission-0148
fission-0148
fission-0148
fission-0148
fission-0148
fission-0148
fission-0148
fission-0148
fission-0148
fission-0148
fission-0148
fission-0148
fission-0148
fission-0148
fission-0148
fission-0148
fission-0148
fission-0148
fission-0148
fission-0148
fission-0148
fission-0148
fission-0148
fission-0148
fission-0148
fission-0148
fission-0148
fission-0148
fission-0148
fission-0148
fission-0148
fission-0149
fission-0149
fission-0149
fission-0149
fission-0149
fission-0149
fission-0149
fission-0149
fission-0149
fission-0149
fission-0149
fission-0149
fission-0149
fission-0149
fission-0149
fission-0149
fission-0149
fission-0149
fission-0149
fission-0149
fission-0149
fission-0149
fission-0149
fission-0149
fission-0149
fission-0149
fission-0149
fission-0149
fission-0149
fission-0149
fission-0149
fission-0149
fission-0151
fission-0151
fission-0151
fission-0151
fission-0151
fission-0151
fission-0151
fission-0151
fission-0151
fission-0151
fission-0151
fission-0151
fission-0151
fission-0151
fission-0151
fission-0151
fission-0151
fission-0151
fission-0151
fission-0151
fission-0151
fission-0151
fission-0151
fission-0151
fission-0151
fission-0151
fission-0151
fission-0151
fission-0151
fission-0151
fission-0151
fission-0151
fission-0154
fission-0154
fission-0154
fission-0154
fission-0154
fission-0154
fission-0154
fission-0154
fission-0154
fission-0154
fission-0154
fission-0154
fission-0154
fission-0154
fission-0154
fission-0154
fission-0154
fission-0154
fission-0154
fission-0154
fission-0154
fission-0154
fission-0154
fission-0154
fission-0154
fission-0154
fission-0154
fission-0154
fission-0154
fission-0154
fission-0154
fission-0154
fission-0153
fission-0153
fission-0153
fission-0153
fission-0153
fission-0153
fission-0153
fission-0153
fission-0153
fission-0153
fission-0153
fission-0153
fission-0153
fission-0153
fission-0153
fission-0153
fission-0153
fission-0153
fission-0153
fission-0153
fission-0153
fission-0153
fission-0153
fission-0153
fission-0153
fission-0153
fission-0153
fission-0153
fission-0153
fission-0153
fission-0153
fission-0153
fission-0152
fission-0152
fission-0152
fission-0152
fission-0152
fission-0152
fission-0152
fission-0152
fission-0152
fission-0152
fission-0152
fission-0152
fission-0152
fission-0152
fission-0152
fission-0152
fission-0152
fission-0152
fission-0152
fission-0152
fission-0152
fission-0152
fission-0152
fission-0152
fission-0152
fission-0152
fission-0152
fission-0152
fission-0152
fission-0152
fission-0152
fission-0152
fission-0157
fission-0157
fission-0157
fission-0157
fission-0157
fission-0157
fission-0157
fission-0157
fission-0157
fission-0157
fission-0157
fission-0157
fission-0157
fission-0157
fission-0157
fission-0157
fission-0157
fission-0157
fission-0157
fission-0157
fission-0157
fission-0157
fission-0157
fission-0157
fission-0157
fission-0157
fission-0157
fission-0157
fission-0157
fission-0157
fission-0157
fission-0157
fission-0141
fission-0141
fission-0141
fission-0141
fission-0141
fission-0141
fission-0141
fission-0141
fission-0141
fission-0141
fission-0141
fission-0141
fission-0141
fission-0141
fission-0141
fission-0141
fission-0141
fission-0141
fission-0141
fission-0141
fission-0141
fission-0141
fission-0141
fission-0141
fission-0141
fission-0141
fission-0141
fission-0141
fission-0141
fission-0141
fission-0141
fission-0141
fission-0163
fission-0163
fission-0163
fission-0163
fission-0163
fission-0163
fission-0163
fission-0163
fission-0163
fission-0163
fission-0163
fission-0163
fission-0163
fission-0163
fission-0163
fission-0163
fission-0163
fission-0163
fission-0163
fission-0163
fission-0163
fission-0163
fission-0163
fission-0163
fission-0163
fission-0163
fission-0163
fission-0163
fission-0163
fission-0163
fission-0163
fission-0163
fission-0147
fission-0147
fission-0147
fission-0147
fission-0147
fission-0147
fission-0147
fission-0147
fission-0147
fission-0147
fission-0147
fission-0147
fission-0147
fission-0147
fission-0147
fission-0147
fission-0147
fission-0147
fission-0147
fission-0147
fission-0147
fission-0147
fission-0147
fission-0147
fission-0147
fission-0147
fission-0147
fission-0147
fission-0147
fission-0147
fission-0147
fission-0147
fission-0162
fission-0162
fission-0162
fission-0162
fission-0162
fission-0162
fission-0162
fission-0162
fission-0162
fission-0162
fission-0162
fission-0162
fission-0162
fission-0162
fission-0162
fission-0162
fission-0162
fission-0162
fission-0162
fission-0162
fission-0162
fission-0162
fission-0162
fission-0162
fission-0162
fission-0162
fission-0162
fission-0162
fission-0162
fission-0162
fission-0162
fission-0162

The following PBS extra args (PBS_EXTRA_ARGS) will be used: -P ldrd
The following lammps extra args (LAMMPS_EXTRA_ARGS) will be used:
LAMMPS (16 Feb 2016)
#log		log.c
units           metal
dimension       3
boundary        p p p
atom_style      atomic
shell         mkdir  cfg
shell         mkdir  dump

# ----------------------- ATOM DEFINITION & Force Field -------------
# ----------------------- ATOM DEFINITION ----------------------------
lattice         fcc 4.024845358 #origin 0.0 0.0 0.0 orient x 1 -1 0 orient y 1 1 -2 orient z 1 1 1
Lattice spacing in x,y,z = 4.02485 4.02485 4.02485
variable        Lx equal 52
variable        Ly equal 2
variable        Lz equal 208
variable        boxLZ equal 218
region          SYSTEM block -52 52 -2 2 -208 0 units lattice
region          BOX block -52 52 -2 2 -218 5 units lattice
create_box      1 BOX
Created orthogonal box = (-209.292 -8.04969 -877.416) to (209.292 8.04969 20.1242)
create_atoms    1 region SYSTEM
Created 346944 atoms

delete_atoms     porosity BOX 0.0002 17319    ##random seed <RAND1>
Deleted 62 atoms, new total = 346882

#---------------------------------------------------------------------------------
pair_style      eam/alloy
pair_coeff  	  * * Al_wkg_MSMSE_2009.set Al

#----------------------------------------------------------------------------------
velocity       all create 300.0 29983 mom yes rot yes dist gaussian         ##random seed <RAND2>

fix             1 all npt temp 300 300 0.1 iso 0.0 0.0 2
run      10000
  1 neighbor list requests
  update every 1 steps, delay 10 steps, check yes
Setting up Verlet run ...
  Unit style  : metal
  Current step: 0
  Time step   : 0.001
Step Temp E_pair E_mol TotEng Press Volume
0          300   -917026.69            0   -903575.32    2128.5644    6048473.6
Loop time of 60.784 on 512 procs for 10000 steps with 346882 atoms

unfix 1

fix            2 all nvt temp 300.0 300.0 0.1

run      10000
Setting up Verlet run ...
  Unit style  : metal
  Current step: 10000
  Time step   : 0.001
Step Temp E_pair E_mol TotEng Press
10000    298.89906   -902906.67            0   -889504.66      39.0572
Loop time of 58.651 on 512 procs for 10000 steps with 346882 atoms

reset_timestep 0
unfix    2
#---------------------- DEFINE Laser GERION and GROUP ----------------
region       R1  block -75  75  INF  INF  INF  5  units box
group        G1 region R1
123552 atoms in group G1
group        G2 subtract all G1
223330 atoms in group G2

#define     temperature/pressure calculation  group
variable    x1atom atom "x>=0  &&  x<4 &&  z>-40 && z<1"     ##NEW!!!!!!!!!!!!
variable    x2atom atom "x>=-209.292  &&  x<-205.292 &&  z>-40 && z<1"
variable    x3atom atom "x>=0  &&  x<4 &&  z>-20 && z<1"
variable    x4atom atom "x>=-209.292  &&  x<-205.292 &&  z>-20 && z<1"
variable    x5atom atom "x>=196  &&  x<200 &&  z>-40 && z<1"

group       x1atom variable x1atom
157 atoms in group x1atom
group       x2atom variable x2atom
160 atoms in group x2atom
group       x3atom variable x3atom
76 atoms in group x3atom
group       x4atom variable x4atom
80 atoms in group x4atom
group       x5atom variable x5atom
160 atoms in group x5atom

compute      COM1x x1atom com
compute      COM2x x2atom com
compute      COM3x x3atom com
compute      COM4x x4atom com
compute      COM5x x5atom com

compute      COMall all com

#Temperature profile
#variable      Tprofile atom 300*(1+(step/5000)*2.5*exp(z/40))
variable      Tprofile atom 300*(1+(step/5000)*2.5*exp(z/75))

# ------------------------- SETTINGS ---------------------------------
thermo          100
thermo_style    custom step lx pxx pyy pzz temp c_COM1x[1] c_COM1x[2] c_COM1x[3] c_COM2x[1] c_COM2x[2] c_COM2x[3] c_COM3x[1] c_COM3x[2] c_COM3x[3] c_COM4x[1] c_COM4x[2] c_COM4x[3]  c_COM5x[1] c_COM5x[2] c_COM5x[3] c_COMall[1] c_COMall[2] c_COMall[3]

timestep       0.002

compute dispall all displace/atom
# ---------------- Run Laser Material Interaction --------------------
#dump          1 all custom 1000 dump/z1dump.atom id type x y z c_dispall[1]  c_dispall[2]  c_dispall[3] c_dispall[4]
#dump          2 all cfg 100 cfg/*.cfg mass type xs ys zs
#dump_modify   2 element Al

#relax for 2 PS
#fix           1 all nvt temp 300.0 300.0 0.1
#run  1000
#unfix         1

fix           1  all nve
fix           3temp  G1  langevin  v_Tprofile  0  0.1  378411   #TEST ALL
run           5000
Setting up Verlet run ...
  Unit style  : metal
  Current step: 0
  Time step   : 0.002
Step Lx Pxx Pyy Pzz Temp COM1x[1] COM1x[2] COM1x[3] COM2x[1] COM2x[2] COM2x[3] COM3x[1] COM3x[2] COM3x[3] COM4x[1] COM4x[2] COM4x[3] COM5x[1] COM5x[2] COM5x[3] COMall[1 COMall[2 COMall[3
0    421.53985    269.70215     260.2775    -147.8048    299.00851    2.7883951  -0.90235939   -19.986866   -207.82498  -0.97620964   -19.698408    2.7958334   -0.7825681   -9.5354208   -207.81592  -0.97515336   -9.5159832     197.4934   -1.0072393    -19.70588   -1.0144854   -1.0132118   -418.51604
Averages over the last 26 of 51 rows, steps 2500 to 5000:
Lx Pxx Pyy Pzz Temp COM1x[1] COM1x[2] COM1x[3] COM2x[1] COM2x[2] COM2x[3] COM3x[1] COM3x[2] COM3x[3] COM4x[1] COM4x[2] COM4x[3] COM5x[1] COM5x[2] COM5x[3] COMall[1 COMall[2 COMall[3
421.54 1370.16 1333.28 838.12 322.003 2.77657 -0.901016 -19.6243 -207.9 -1.04545 -19.7992 2.7924 -0.710055 -8.97855 -207.908 -1.04975 -9.62724 197.507 -1.03602 -19.8021 -1.011 -1.01365 -418.531
Loop time of 29.307 on 512 procs for 5000 steps with 346882 atoms

variable  com1_x equal "c_COM1x[1]"
variable  com1_y equal "c_COM1x[2]"
variable  com1_z equal "c_COM1x[3]"
variable  com2_x equal "c_COM2x[1]"
variable  com2_y equal "c_COM2x[2]"
variable  com2_z equal "c_COM2x[3]"
variable  com3_x equal "c_COM3x[1]"
variable  com3_y equal "c_COM3x[2]"
variable  com3_z equal "c_COM3x[3]"
variable  com4_x equal "c_COM4x[1]"
variable  com4_y equal "c_COM4x[2]"
variable  com4_z equal "c_COM4x[3]"
variable  com5_x equal "c_COM5x[1]"
variable  com5_y equal "c_COM5x[2]"
variable  com5_z equal "c_COM5x[3]"
variable  comall_x equal "c_COMall[1]"
variable  comall_y equal "c_COMall[2]"
variable  comall_z equal "c_COMall[3]"

#-------------------------- Wave Propagation -------------------------
unfix        3temp
run          1000000
Setting up Verlet run ...
  Unit style  : metal
  Current step: 5000
  Time step   : 0.002
Step Lx Pxx Pyy Pzz Temp COM1x[1] COM1x[2] COM1x[3] COM2x[1] COM2x[2] COM2x[3] COM3x[1] COM3x[2] COM3x[3] COM4x[1] COM4x[2] COM4x[3] COM5x[1] COM5x[2] COM5x[3] COMall[1 COMall[2 COMall[3
5000    421.53985    1695.9215    1631.0469    1035.4836    329.92374    2.7292716  -0.72625097   -19.446784   -207.91379    -0.971096   -19.589035    2.7272843   -0.5880786    -8.622685   -207.94286   -1.0264511   -9.4327009    197.60236  -0.98095239   -19.602903   -1.0162356    -1.004416   -418.53524
Averages over the last 5001 of 10001 rows, steps 505000 to 1005000:
Lx Pxx Pyy Pzz Temp COM1x[1] COM1x[2] COM1x[3] COM2x[1] COM2x[2] COM2x[3] COM3x[1] COM3x[2] COM3x[3] COM4x[1] COM4x[2] COM4x[3] COM5x[1] COM5x[2] COM5x[3] COMall[1 COMall[2 COMall[3
421.54 1142.77 1119.15 -7.92018 330.758 -11.4917 4.07707 -28.7785 -222.221 3.99365 -28.5323 -11.4989 4.20628 -18.3185 -222.222 3.99351 -18.3674 183.106 3.99376 -28.532 -15.5036 3.99582 -427.988
Loop time of 5703.51 on 512 procs for 1000000 steps with 346882 atoms
