fission-0355
fission-0355
fission-0355
fission-0355
fission-0355
fission-0355
fission-0355
fission-0355
fission-0355
fission-0355
fission-0355
fission-0355
fission-0355
fission-0355
fission-0355
fission-0355
fission-0355
fission-0355
fission-0355
fission-0355
fission-0355
fission-0355
fission-0355
fission-0355
fission-0355
fission-0355
fission-0355
fission-0355
fission-0355
fission-0355
fission-0355
fission-0355
fission-0358
fission-0358
fission-0358
fission-0358
fission-0358
fission-0358
fission-0358
fission-0358
fission-0358
fission-0358
fission-0358
fission-0358
fission-0358
fission-0358
fission-0358
fission-0358
fission-0358
fission-0358
fission-0358
fission-0358
fission-0358
fission-0358
fission-0358
fission-0358
fission-0358
fission-0358
fission-0358
fission-0358
fission-0358
fission-0358
fission-0358
fission-0358
fission-0341
fission-0341
fission-0341
fission-0341
fission-0341
fission-0341
fission-0341
fission-0341
fission-0341
fission-0341
fission-0341
fission-0341
fission-0341
fission-0341
fission-0341
fission-0341
fission-0341
fission-0341
fission-0341
fission-0341
fission-0341
fission-0341
fission-0341
fission-0341
fission-0341
fission-0341
fission-0341
fission-0341
fission-0341
fission-0341
fission-0341
fission-0341
fission-0357
fission-0357
fission-0357
fission-0357
fission-0357
fission-0357
fission-0357
fission-0357
fission-0357
fission-0357
fission-0357
fission-0357
fission-0357
fission-0357
fission-0357
fission-0357
fission-0357
fission-0357
fission-0357
fission-0357
fission-0357
fission-0357
fission-0357
fission-0357
fission-0357
fission-0357
fission-0357
fission-0357
fission-0357
fission-0357
fission-0357
fission-0357
fission-0361
fission-0361
fission-0361
fission-0361
fission-0361
fission-0361
fission-0361
fission-0361
fission-0361
fission-0361
fission-0361
fission-0361
fission-0361
fission-0361
fission-0361
fission-0361
fission-0361
fission-0361
fission-0361
fission-0361
fission-0361
fission-0361
fission-0361
fission-0361
fission-0361
fission-0361
fission-0361
fission-0361
fission-0361
fission-0361
fission-0361
fission-0361
fission-0345
fission-0345
fission-0345
fission-0345
fission-0345
fission-0345
fission-0345
fission-0345
fission-0345
fission-0345
fission-0345
fission-0345
fission-0345
fission-0345
fission-0345
fission-0345
fission-0345
fission-0345
fission-0345
fission-0345
fission-0345
fission-0345
fission-0345
fission-0345
fission-0345
fission-0345
fission-0345
fission-0345
fission-0345
fission-0345
fission-0345
fission-0345
fission-0349
fission-0349
fission-0349
fission-0349
fission-0349
fission-0349
fission-0349
fission-0349
fission-0349
fission-0349
fission-0349
fission-0349
fission-0349
fission-0349
fission-0349
fission-0349
fission-0349
fission-0349
fission-0349
fission-0349
fission-0349
fission-0349
fission-0349
fission-0349
fission-0349
fission-0349
fission-0349
fission-0349
fission-0349
fission-0349
fission-0349
fission-0349
fission-0352
fission-0352
fission-0352
fission-0352
fission-0352
fission-0352
fission-0352
fission-0352
fission-0352
fission-0352
fission-0352
fission-0352
fission-0352
fission-0352
fission-0352
fission-0352
fission-0352
fission-0352
fission-0352
fission-0352
fission-0352
fission-0352
fission-0352
fission-0352
fission-0352
fission-0352
fission-0352
fission-0352
fission-0352
fission-0352
fission-0352
fission-0352
fission-0353
fission-0353
fission-0353
fission-0353
fission-0353
fission-0353
fission-0353
fission-0353
fission-0353
fission-0353
fission-0353
fission-0353
fission-0353
fission-0353
fission-0353
fission-0353
fission-0353
fission-0353
fission-0353
fission-0353
fission-0353
fission-0353
fission-0353
fission-0353
fission-0353
fission-0353
fission-0353
fission-0353
fission-0353
fission-0353
fission-0353
fission-0353
fission-0354
fission-0354
fission-0354
fission-0354
fission-0354
fission-0354
fission-0354
fission-0354
fission-0354
fission-0354
fission-0354
fission-0354
fission-0354
fission-0354
fission-0354
fission-0354
fission-0354
fission-0354
fission-0354
fission-0354
fission-0354
fission-0354
fission-0354
fission-0354
fission-0354
fission-0354
fission-0354
fission-0354
fission-0354
fission-0354
fission-0354
fission-0354
fission-0359
fission-0359
fission-0359
fission-0359
fission-0359
fission-0359
fission-0359
fission-0359
fission-0359
fission-0359
fission-0359
fission-0359
fission-0359
fission-0359
fission-0359
fission-0359
fission-0359
fission-0359
fission-0359
fission-0359
fission-0359
fission-0359
fission-0359
fission-0359
fission-0359
fission-0359
fission-0359
fission-0359
fission-0359
fission-0359
fission-0359
fission-0359
fission-0336
fission-0336
fission-0336
fission-0336
fission-0336
fission-0336
fission-0336
fission-0336
fission-0336
fission-0336
fission-0336
fission-0336
fission-0336
fission-0336
fission-0336
fission-0336
fission-0336
fission-0336
fission-0336
fission-0336
fission-0336
fission-0336
fission-0336
fission-0336
fission-0336
fission-0336
fission-0336
fission-0336
fission-0336
fission-0336
fission-0336
fission-0336
fission-0337
fission-0337
fission-0337
fission-0337
fission-0337
fission-0337
fission-0337
fission-0337
fission-0337
fission-0337
fission-0337
fission-0337
fission-0337
fission-0337
fission-0337
fission-0337
fission-0337
fission-0337
fission-0337
fission-0337
fission-0337
fission-0337
fission-0337
fission-0337
fission-0337
fission-0337
fission-0337
fission-0337
fission-0337
fission-0337
fission-0337
fission-0337
fission-0362
fission-0362
fission-0362
fission-0362
fission-0362
fission-0362
fission-0362
fission-0362
fission-0362
fission-0362
fission-0362
fission-0362
fission-0362
fission-0362
fission-0362
fission-0362
fission-0362
fission-0362
fission-0362
fission-0362
fission-0362
fission-0362
fission-0362
fission-0362
fission-0362
fission-0362
fission-0362
fission-0362
fission-0362
fission-0362
fission-0362
fission-0362
fission-0338
fission-0338
fission-0338
fission-0338
fission-0338
fission-0338
fission-0338
fission-0338
fission-0338
fission-0338
fission-0338
fission-0338
fission-0338
fission-0338
fission-0338
fission-0338
fission-0338
fission-0338
fission-0338
fission-0338
fission-0338
fission-0338
fission-0338
fission-0338
fission-0338
fission-0338
fission-0338
fission-0338
fission-0338
fission-0338
fission-0338
fission-0338
fission-0340
fission-0340
fission-0340
fission-0340
fission-0340
fission-0340
fission-0340
fission-0340
fission-0340
fission-0340
fission-0340
fission-0340
fission-0340
fission-0340
fission-0340
fission-0340
fission-0340
fission-0340
fission-0340
fission-0340
fission-0340
fission-0340
fission-0340
fission-0340
fission-0340
fission-0340
fission-0340
fission-0340
fission-0340
fission-0340
fission-0340
fission-0340

The following PBS extra args (PBS_EXTRA_ARGS) will be used: -P ldrd
The following lammps extra args (LAMMPS_EXTRA_ARGS) will be used:
LAMMPS (16 Feb 2016)
#log		log.c
units           metal
dimension       3
boundary        p p p
atom_style      atomic
shell         mkdir  cfg
shell         mkdir  dump

# ----------------------- ATOM DEFINITION & Force Field -------------
# ----------------------- ATOM DEFINITION ----------------------------
lattice         fcc 4.024845358 #origin 0.0 0.0 0.0 orient x 1 -1 0 orient y 1 1 -2 orient z 1 1 1
Lattice spacing in x,y,z = 4.02485 4.02485 4.02485
variable        Lx equal 52
variable        Ly equal 2
variable        Lz equal 208
variable        boxLZ equal 218
region          SYSTEM block -52 52 -2 2 -208 0 units lattice
region          BOX block -52 52 -2 2 -218 5 units lattice
create_box      1 BOX
Created orthogonal box = (-209.292 -8.04969 -877.416) to (209.292 8.04969 20.1242)
create_atoms    1 region SYSTEM
Created 346944 atoms

delete_atoms     porosity BOX 0.0002 2503    ##random seed <RAND1>
Deleted 57 atoms, new total = 346887

#---------------------------------------------------------------------------------
pair_style      eam/alloy
pair_coeff  	  * * Al_wkg_MSMSE_2009.set Al

#----------------------------------------------------------------------------------
velocity       all create 300.0 2019 mom yes rot yes dist gaussian         ##random seed <RAND2>

fix             1 all npt temp 300 300 0.1 iso 0.0 0.0 2
run      10000
  1 neighbor list requests
  update every 1 steps, delay 10 steps, check yes
Setting up Verlet run ...
  Unit style  : metal
  Current step: 0
  Time step   : 0.001
Step Temp E_pair E_mol TotEng Press Volume
0          300   -917043.96            0    -903592.4    2133.2644    6048473.6
Loop time of 58.6678 on 512 procs for 10000 steps with 346887 atoms

unfix 1

fix            2 all nvt temp 300.0 300.0 0.1

run      10000
Setting up Verlet run ...
  Unit style  : metal
  Current step: 10000
  Time step   : 0.001
Step Temp E_pair E_mol TotEng Press
10000    299.16127   -902949.11            0   -889535.15    35.733258
Loop time of 57.0529 on 512 procs for 10000 steps with 346887 atoms

reset_timestep 0
unfix    2
#---------------------- DEFINE Laser GERION and GROUP ----------------
region       R1  block -75  75  INF  INF  INF  5  units box
group        G1 region R1
123480 atoms in group G1
group        G2 subtract all G1
223407 atoms in group G2

#define     temperature/pressure calculation  group
variable    x1atom atom "x>=0  &&  x<4 &&  z>-40 && z<1"     ##NEW!!!!!!!!!!!!
variable    x2atom atom "x>=-209.292  &&  x<-205.292 &&  z>-40 && z<1"
variable    x3atom atom "x>=0  &&  x<4 &&  z>-20 && z<1"
variable    x4atom atom "x>=-209.292  &&  x<-205.292 &&  z>-20 && z<1"
variable    x5atom atom "x>=196  &&  x<200 &&  z>-40 && z<1"

group       x1atom variable x1atom
157 atoms in group x1atom
group       x2atom variable x2atom
160 atoms in group x2atom
group       x3atom variable x3atom
79 atoms in group x3atom
group       x4atom variable x4atom
80 atoms in group x4atom
group       x5atom variable x5atom
160 atoms in group x5atom

compute      COM1x x1atom com
compute      COM2x x2atom com
compute      COM3x x3atom com
compute      COM4x x4atom com
compute      COM5x x5atom com

compute      COMall all com

#Temperature profile
#variable      Tprofile atom 300*(1+(step/5000)*2.5*exp(z/40))
variable      Tprofile atom 300*(1+(step/5000)*2.5*exp(z/75))

# ------------------------- SETTINGS ---------------------------------
thermo          100
thermo_style    custom step lx pxx pyy pzz temp c_COM1x[1] c_COM1x[2] c_COM1x[3] c_COM2x[1] c_COM2x[2] c_COM2x[3] c_COM3x[1] c_COM3x[2] c_COM3x[3] c_COM4x[1] c_COM4x[2] c_COM4x[3]  c_COM5x[1] c_COM5x[2] c_COM5x[3] c_COMall[1] c_COMall[2] c_COMall[3]

timestep       0.002

compute dispall all displace/atom
# ---------------- Run Laser Material Interaction --------------------
#dump          1 all custom 1000 dump/z1dump.atom id type x y z c_dispall[1]  c_dispall[2]  c_dispall[3] c_dispall[4]
#dump          2 all cfg 100 cfg/*.cfg mass type xs ys zs
#dump_modify   2 element Al

#relax for 2 PS
#fix           1 all nvt temp 300.0 300.0 0.1
#run  1000
#unfix         1

fix           1  all nve
fix           3temp  G1  langevin  v_Tprofile  0  0.1  378411   #TEST ALL
run           5000
Setting up Verlet run ...
  Unit style  : metal
  Current step: 0
  Time step   : 0.002
Step Lx Pxx Pyy Pzz Temp COM1x[1] COM1x[2] COM1x[3] COM2x[1] COM2x[2] COM2x[3] COM3x[1] COM3x[2] COM3x[3] COM4x[1] COM4x[2] COM4x[3] COM5x[1] COM5x[2] COM5x[3] COMall[1 COMall[2 COMall[3
0     421.5758    193.41836    152.11233   -162.16356    300.24939    1.2876652  -0.89434345   -19.650379   -207.52777  -0.95730522   -19.684925    1.2831839   -1.0753882   -9.3823885   -207.50684  -0.96423896   -9.5657016    197.80075  -0.91413206   -19.690441   -1.0166315    -1.013453   -418.51639
Averages over the last 26 of 51 rows, steps 2500 to 5000:
Lx Pxx Pyy Pzz Temp COM1x[1] COM1x[2] COM1x[3] COM2x[1] COM2x[2] COM2x[3] COM3x[1] COM3x[2] COM3x[3] COM4x[1] COM4x[2] COM4x[3] COM5x[1] COM5x[2] COM5x[3] COMall[1 COMall[2 COMall[3
421.576 1342.37 1287.98 880.565 322.474 1.2454 -0.943334 -19.258 -207.684 -1.09717 -19.8456 1.22549 -1.09064 -8.82594 -207.687 -1.10391 -9.68475 197.744 -1.08519 -19.8455 -1.02354 -1.01247 -418.541
Loop time of 30.4903 on 512 procs for 5000 steps with 346887 atoms

variable  com1_x equal "c_COM1x[1]"
variable  com1_y equal "c_COM1x[2]"
variable  com1_z equal "c_COM1x[3]"
variable  com2_x equal "c_COM2x[1]"
variable  com2_y equal "c_COM2x[2]"
variable  com2_z equal "c_COM2x[3]"
variable  com3_x equal "c_COM3x[1]"
variable  com3_y equal "c_COM3x[2]"
variable  com3_z equal "c_COM3x[3]"
variable  com4_x equal "c_COM4x[1]"
variable  com4_y equal "c_COM4x[2]"
variable  com4_z equal "c_COM4x[3]"
variable  com5_x equal "c_COM5x[1]"
variable  com5_y equal "c_COM5x[2]"
variable  com5_z equal "c_COM5x[3]"
variable  comall_x equal "c_COMall[1]"
variable  comall_y equal "c_COMall[2]"
variable  comall_z equal "c_COMall[3]"

#-------------------------- Wave Propagation -------------------------
unfix        3temp
run          1000000
Setting up Verlet run ...
  Unit style  : metal
  Current step: 5000
  Time step   : 0.002
Step Lx Pxx Pyy Pzz Temp COM1x[1] COM1x[2] COM1x[3] COM2x[1] COM2x[2] COM2x[3] COM3x[1] COM3x[2] COM3x[3] COM4x[1] COM4x[2] COM4x[3] COM5x[1] COM5x[2] COM5x[3] COMall[1 COMall[2 COMall[3
5000     421.5758    1576.0571    1491.1465    980.78992    331.04202    1.2745539  -0.93740561   -19.012186   -207.64081  -0.98810641   -19.595822    1.2833844    -1.168471   -8.4155169   -207.71821   -1.0303779   -9.4396588    197.81302   -1.0640613   -19.585422   -1.0248333   -1.0156573   -418.54945
Averages over the last 5001 of 10001 rows, steps 505000 to 1005000:
Lx Pxx Pyy Pzz Temp COM1x[1] COM1x[2] COM1x[3] COM2x[1] COM2x[2] COM2x[3] COM3x[1] COM3x[2] COM3x[3] COM4x[1] COM4x[2] COM4x[3] COM5x[1] COM5x[2] COM5x[3] COMall[1 COMall[2 COMall[3
421.576 1072.06 1049.56 -8.09662 331.167 -17.5803 -1.93146 -33.5832 -226.518 -1.8995 -33.7439 -17.5876 -2.1173 -23.3356 -226.518 -1.89966 -23.5797 178.842 -1.89986 -33.7434 -19.7862 -1.89873 -433.174
Loop time of 5622.29 on 512 procs for 1000000 steps with 346887 atoms
