fission-0251
fission-0251
fission-0251
fission-0251
fission-0251
fission-0251
fission-0251
fission-0251
fission-0251
fission-0251
fission-0251
fission-0251
fission-0251
fission-0251
fission-0251
fission-0251
fission-0251
fission-0251
fission-0251
fission-0251
fission-0251
fission-0251
fission-0251
fission-0251
fission-0251
fission-0251
fission-0251
fission-0251
fission-0251
fission-0251
fission-0251
fission-0251
fission-0234
fission-0234
fission-0234
fission-0234
fission-0234
fission-0234
fission-0234
fission-0234
fission-0234
fission-0234
fission-0234
fission-0234
fission-0234
fission-0234
fission-0234
fission-0234
fission-0234
fission-0234
fission-0234
fission-0234
fission-0234
fission-0234
fission-0234
fission-0234
fission-0234
fission-0234
fission-0234
fission-0234
fission-0234
fission-0234
fission-0234
fission-0234
fission-0236
fission-0236
fission-0236
fission-0236
fission-0236
fission-0236
fission-0236
fission-0236
fission-0236
fission-0236
fission-0236
fission-0236
fission-0236
fission-0236
fission-0236
fission-0236
fission-0236
fission-0236
fission-0236
fission-0236
fission-0236
fission-0236
fission-0236
fission-0236
fission-0236
fission-0236
fission-0236
fission-0236
fission-0236
fission-0236
fission-0236
fission-0236
fission-0233
fission-0233
fission-0233
fission-0233
fission-0233
fission-0233
fission-0233
fission-0233
fission-0233
fission-0233
fission-0233
fission-0233
fission-0233
fission-0233
fission-0233
fission-0233
fission-0233
fission-0233
fission-0233
fission-0233
fission-0233
fission-0233
fission-0233
fission-0233
fission-0233
fission-0233
fission-0233
fission-0233
fission-0233
fission-0233
fission-0233
fission-0233
fission-0235
fission-0235
fission-0235
fission-0235
fission-0235
fission-0235
fission-0235
fission-0235
fission-0235
fission-0235
fission-0235
fission-0235
fission-0235
fission-0235
fission-0235
fission-0235
fission-0235
fission-0235
fission-0235
fission-0235
fission-0235
fission-0235
fission-0235
fission-0235
fission-0235
fission-0235
fission-0235
fission-0235
fission-0235
fission-0235
fission-0235
fission-0235
fission-0239
fission-0239
fission-0239
fission-0239
fission-0239
fission-0239
fission-0239
fission-0239
fission-0239
fission-0239
fission-0239
fission-0239
fission-0239
fission-0239
fission-0239
fission-0239
fission-0239
fission-0239
fission-0239
fission-0239
fission-0239
fission-0239
fission-0239
fission-0239
fission-0239
fission-0239
fission-0239
fission-0239
fission-0239
fission-0239
fission-0239
fission-0239
fission-0240
fission-0240
fission-0240
fission-0240
fission-0240
fission-0240
fission-0240
fission-0240
fission-0240
fission-0240
fission-0240
fission-0240
fission-0240
fission-0240
fission-0240
fission-0240
fission-0240
fission-0240
fission-0240
fission-0240
fission-0240
fission-0240
fission-0240
fission-0240
fission-0240
fission-0240
fission-0240
fission-0240
fission-0240
fission-0240
fission-0240
fission-0240
fission-0241
fission-0241
fission-0241
fission-0241
fission-0241
fission-0241
fission-0241
fission-0241
fission-0241
fission-0241
fission-0241
fission-0241
fission-0241
fission-0241
fission-0241
fission-0241
fission-0241
fission-0241
fission-0241
fission-0241
fission-0241
fission-0241
fission-0241
fission-0241
fission-0241
fission-0241
fission-0241
fission-0241
fission-0241
fission-0241
fission-0241
fission-0241
fission-0226
fission-0226
fission-0226
fission-0226
fission-0226
fission-0226
fission-0226
fission-0226
fission-0226
fission-0226
fission-0226
fission-0226
fission-0226
fission-0226
fission-0226
fission-0226
fission-0226
fission-0226
fission-0226
fission-0226
fission-0226
fission-0226
fission-0226
fission-0226
fission-0226
fission-0226
fission-0226
fission-0226
fission-0226
fission-0226
fission-0226
fission-0226
fission-0227
fission-0227
fission-0227
fission-0227
fission-0227
fission-0227
fission-0227
fission-0227
fission-0227
fission-0227
fission-0227
fission-0227
fission-0227
fission-0227
fission-0227
fission-0227
fission-0227
fission-0227
fission-0227
fission-0227
fission-0227
fission-0227
fission-0227
fission-0227
fission-0227
fission-0227
fission-0227
fission-0227
fission-0227
fission-0227
fission-0227
fission-0227
fission-0228
fission-0228
fission-0228
fission-0228
fission-0228
fission-0228
fission-0228
fission-0228
fission-0228
fission-0228
fission-0228
fission-0228
fission-0228
fission-0228
fission-0228
fission-0228
fission-0228
fission-0228
fission-0228
fission-0228
fission-0228
fission-0228
fission-0228
fission-0228
fission-0228
fission-0228
fission-0228
fission-0228
fission-0228
fission-0228
fission-0228
fission-0228
fission-0230
fission-0230
fission-0230
fission-0230
fission-0230
fission-0230
fission-0230
fission-0230
fission-0230
fission-0230
fission-0230
fission-0230
fission-0230
fission-0230
fission-0230
fission-0230
fission-0230
fission-0230
fission-0230
fission-0230
fission-0230
fission-0230
fission-0230
fission-0230
fission-0230
fission-0230
fission-0230
fission-0230
fission-0230
fission-0230
fission-0230
fission-0230
fission-0232
fission-0232
fission-0232
fission-0232
fission-0232
fission-0232
fission-0232
fission-0232
fission-0232
fission-0232
fission-0232
fission-0232
fission-0232
fission-0232
fission-0232
fission-0232
fission-0232
fission-0232
fission-0232
fission-0232
fission-0232
fission-0232
fission-0232
fission-0232
fission-0232
fission-0232
fission-0232
fission-0232
fission-0232
fission-0232
fission-0232
fission-0232
fission-0246
fission-0246
fission-0246
fission-0246
fission-0246
fission-0246
fission-0246
fission-0246
fission-0246
fission-0246
fission-0246
fission-0246
fission-0246
fission-0246
fission-0246
fission-0246
fission-0246
fission-0246
fission-0246
fission-0246
fission-0246
fission-0246
fission-0246
fission-0246
fission-0246
fission-0246
fission-0246
fission-0246
fission-0246
fission-0246
fission-0246
fission-0246
fission-0247
fission-0247
fission-0247
fission-0247
fission-0247
fission-0247
fission-0247
fission-0247
fission-0247
fission-0247
fission-0247
fission-0247
fission-0247
fission-0247
fission-0247
fission-0247
fission-0247
fission-0247
fission-0247
fission-0247
fission-0247
fission-0247
fission-0247
fission-0247
fission-0247
fission-0247
fission-0247
fission-0247
fission-0247
fission-0247
fission-0247
fission-0247
fission-0248
fission-0248
fission-0248
fission-0248
fission-0248
fission-0248
fission-0248
fission-0248
fission-0248
fission-0248
fission-0248
fission-0248
fission-0248
fission-0248
fission-0248
fission-0248
fission-0248
fission-0248
fission-0248
fission-0248
fission-0248
fission-0248
fission-0248
fission-0248
fission-0248
fission-0248
fission-0248
fission-0248
fission-0248
fission-0248
fission-0248
fission-0248

The following PBS extra args (PBS_EXTRA_ARGS) will be used: -P ldrd
The following lammps extra args (LAMMPS_EXTRA_ARGS) will be used:
LAMMPS (16 Feb 2016)
#log		log.c
units           metal
dimension       3
boundary        p p p
atom_style      atomic
shell         mkdir  cfg
shell         mkdir  dump

# ----------------------- ATOM DEFINITION & Force Field -------------
# ----------------------- ATOM DEFINITION ----------------------------
lattice         fcc 4.024845358 #origin 0.0 0.0 0.0 orient x 1 -1 0 orient y 1 1 -2 orient z 1 1 1
Lattice spacing in x,y,z = 4.02485 4.02485 4.02485
variable        Lx equal 52
variable        Ly equal 2
variable        Lz equal 208
variable        boxLZ equal 218
region          SYSTEM block -52 52 -2 2 -208 0 units lattice
region          BOX block -52 52 -2 2 -218 5 units lattice
create_box      1 BOX
Created orthogonal box = (-209.292 -8.04969 -877.416) to (209.292 8.04969 20.1242)
create_atoms    1 region SYSTEM
Created 346944 atoms

delete_atoms     porosity BOX 0.0005 3380    ##random seed <RAND1>
Deleted 214 atoms, new total = 346730

#---------------------------------------------------------------------------------
pair_style      eam/alloy
pair_coeff  	  * * Al_wkg_MSMSE_2009.set Al

#----------------------------------------------------------------------------------
velocity       all create 300.0 19721 mom yes rot yes dist gaussian         ##random seed <RAND2>

fix             1 all npt temp 300 300 0.1 iso 0.0 0.0 2
run      10000
  1 neighbor list requests
  update every 1 steps, delay 10 steps, check yes
Setting up Verlet run ...
  Unit style  : metal
  Current step: 0
  Time step   : 0.001
Step Temp E_pair E_mol TotEng Press Volume
0          300   -916506.85            0   -903061.38    2002.5354    6048473.6
Loop time of 59.294 on 512 procs for 10000 steps with 346730 atoms

unfix 1

fix            2 all nvt temp 300.0 300.0 0.1

run      10000
Setting up Verlet run ...
  Unit style  : metal
  Current step: 10000
  Time step   : 0.001
Step Temp E_pair E_mol TotEng Press
10000    300.30254   -902463.86            0   -889004.82    6.8826482
Loop time of 58.5627 on 512 procs for 10000 steps with 346730 atoms

reset_timestep 0
unfix    2
#---------------------- DEFINE Laser GERION and GROUP ----------------
region       R1  block -75  75  INF  INF  INF  5  units box
group        G1 region R1
123551 atoms in group G1
group        G2 subtract all G1
223179 atoms in group G2

#define     temperature/pressure calculation  group
variable    x1atom atom "x>=0  &&  x<4 &&  z>-40 && z<1"     ##NEW!!!!!!!!!!!!
variable    x2atom atom "x>=-209.292  &&  x<-205.292 &&  z>-40 && z<1"
variable    x3atom atom "x>=0  &&  x<4 &&  z>-20 && z<1"
variable    x4atom atom "x>=-209.292  &&  x<-205.292 &&  z>-20 && z<1"
variable    x5atom atom "x>=196  &&  x<200 &&  z>-40 && z<1"

group       x1atom variable x1atom
154 atoms in group x1atom
group       x2atom variable x2atom
159 atoms in group x2atom
group       x3atom variable x3atom
75 atoms in group x3atom
group       x4atom variable x4atom
80 atoms in group x4atom
group       x5atom variable x5atom
159 atoms in group x5atom

compute      COM1x x1atom com
compute      COM2x x2atom com
compute      COM3x x3atom com
compute      COM4x x4atom com
compute      COM5x x5atom com

compute      COMall all com

#Temperature profile
#variable      Tprofile atom 300*(1+(step/5000)*2.5*exp(z/40))
variable      Tprofile atom 300*(1+(step/5000)*2.5*exp(z/75))

# ------------------------- SETTINGS ---------------------------------
thermo          100
thermo_style    custom step lx pxx pyy pzz temp c_COM1x[1] c_COM1x[2] c_COM1x[3] c_COM2x[1] c_COM2x[2] c_COM2x[3] c_COM3x[1] c_COM3x[2] c_COM3x[3] c_COM4x[1] c_COM4x[2] c_COM4x[3]  c_COM5x[1] c_COM5x[2] c_COM5x[3] c_COMall[1] c_COMall[2] c_COMall[3]

timestep       0.002

compute dispall all displace/atom
# ---------------- Run Laser Material Interaction --------------------
#dump          1 all custom 1000 dump/z1dump.atom id type x y z c_dispall[1]  c_dispall[2]  c_dispall[3] c_dispall[4]
#dump          2 all cfg 100 cfg/*.cfg mass type xs ys zs
#dump_modify   2 element Al

#relax for 2 PS
#fix           1 all nvt temp 300.0 300.0 0.1
#run  1000
#unfix         1

fix           1  all nve
fix           3temp  G1  langevin  v_Tprofile  0  0.1  378411   #TEST ALL
run           5000
Setting up Verlet run ...
  Unit style  : metal
  Current step: 0
  Time step   : 0.002
Step Lx Pxx Pyy Pzz Temp COM1x[1] COM1x[2] COM1x[3] COM2x[1] COM2x[2] COM2x[3] COM3x[1] COM3x[2] COM3x[3] COM4x[1] COM4x[2] COM4x[3] COM5x[1] COM5x[2] COM5x[3] COMall[1 COMall[2 COMall[3
0    421.59167    21.711155   -2.3876706   -273.62579    299.58484    1.9607762    -1.257267   -19.884853   -207.68989   -1.0209063   -19.947458    1.9353068   -1.1292272   -9.1811623   -207.68885   -1.0155356   -9.8391317    197.67744  -0.98774234   -19.824426   -1.0168554   -1.0130089   -418.49677
Averages over the last 26 of 51 rows, steps 2500 to 5000:
Lx Pxx Pyy Pzz Temp COM1x[1] COM1x[2] COM1x[3] COM2x[1] COM2x[2] COM2x[3] COM3x[1] COM3x[2] COM3x[3] COM4x[1] COM4x[2] COM4x[3] COM5x[1] COM5x[2] COM5x[3] COMall[1 COMall[2 COMall[3
421.592 1075.41 1029.95 612.199 321.816 1.90271 -1.20535 -19.5208 -207.747 -0.860121 -19.6989 1.82162 -0.983111 -8.64734 -207.742 -0.896477 -9.56938 197.7 -0.882495 -19.6021 -1.01179 -0.983214 -418.463
Loop time of 30.3988 on 512 procs for 5000 steps with 346730 atoms

variable  com1_x equal "c_COM1x[1]"
variable  com1_y equal "c_COM1x[2]"
variable  com1_z equal "c_COM1x[3]"
variable  com2_x equal "c_COM2x[1]"
variable  com2_y equal "c_COM2x[2]"
variable  com2_z equal "c_COM2x[3]"
variable  com3_x equal "c_COM3x[1]"
variable  com3_y equal "c_COM3x[2]"
variable  com3_z equal "c_COM3x[3]"
variable  com4_x equal "c_COM4x[1]"
variable  com4_y equal "c_COM4x[2]"
variable  com4_z equal "c_COM4x[3]"
variable  com5_x equal "c_COM5x[1]"
variable  com5_y equal "c_COM5x[2]"
variable  com5_z equal "c_COM5x[3]"
variable  comall_x equal "c_COMall[1]"
variable  comall_y equal "c_COMall[2]"
variable  comall_z equal "c_COMall[3]"

#-------------------------- Wave Propagation -------------------------
unfix        3temp
run          1000000
Setting up Verlet run ...
  Unit style  : metal
  Current step: 5000
  Time step   : 0.002
Step Lx Pxx Pyy Pzz Temp COM1x[1] COM1x[2] COM1x[3] COM2x[1] COM2x[2] COM2x[3] COM3x[1] COM3x[2] COM3x[3] COM4x[1] COM4x[2] COM4x[3] COM5x[1] COM5x[2] COM5x[3] COMall[1 COMall[2 COMall[3
5000    421.59167    1389.7758    1330.2163    839.76982    330.11849    1.8988853   -1.0784839   -19.378098   -207.85584  -0.96144683   -19.611964    1.8187783  -0.87472193   -8.4525123   -207.82034  -0.99711904   -9.4792207    197.62798   -1.0722588   -19.470598   -1.0192348  -0.99145304   -418.47457
Averages over the last 5001 of 10001 rows, steps 505000 to 1005000:
Lx Pxx Pyy Pzz Temp COM1x[1] COM1x[2] COM1x[3] COM2x[1] COM2x[2] COM2x[3] COM3x[1] COM3x[2] COM3x[3] COM4x[1] COM4x[2] COM4x[3] COM5x[1] COM5x[2] COM5x[3] COMall[1 COMall[2 COMall[3
421.592 953.793 930.999 -6.58532 330.636 -12.6569 -6.60807 -41.6452 -222.381 -6.29954 -41.4676 -12.6874 -6.42622 -30.9453 -222.385 -6.33147 -31.3405 182.998 -6.32493 -41.3942 -15.6447 -6.33148 -440.828
Loop time of 5787.67 on 512 procs for 1000000 steps with 346730 atoms
