fission-0210
fission-0210
fission-0210
fission-0210
fission-0210
fission-0210
fission-0210
fission-0210
fission-0210
fission-0210
fission-0210
fission-0210
fission-0210
fission-0210
fission-0210
fission-0210
fission-0210
fission-0210
fission-0210
fission-0210
fission-0210
fission-0210
fission-0210
fission-0210
fission-0210
fission-0210
fission-0210
fission-0210
fission-0210
fission-0210
fission-0210
fission-0210
fission-0215
fission-0215
fission-0215
fission-0215
fission-0215
fission-0215
fission-0215
fission-0215
fission-0215
fission-0215
fission-0215
fission-0215
fission-0215
fission-0215
fission-0215
fission-0215
fission-0215
fission-0215
fission-0215
fission-0215
fission-0215
fission-0215
fission-0215
fission-0215
fission-0215
fission-0215
fission-0215
fission-0215
fission-0215
fission-0215
fission-0215
fission-0215
fission-0208
fission-0208
fission-0208
fission-0208
fission-0208
fission-0208
fission-0208
fission-0208
fission-0208
fission-0208
fission-0208
fission-0208
fission-0208
fission-0208
fission-0208
fission-0208
fission-0208
fission-0208
fission-0208
fission-0208
fission-0208
fission-0208
fission-0208
fission-0208
fission-0208
fission-0208
fission-0208
fission-0208
fission-0208
fission-0208
fission-0208
fission-0208
fission-0213
fission-0213
fission-0213
fission-0213
fission-0213
fission-0213
fission-0213
fission-0213
fission-0213
fission-0213
fission-0213
fission-0213
fission-0213
fission-0213
fission-0213
fission-0213
fission-0213
fission-0213
fission-0213
fission-0213
fission-0213
fission-0213
fission-0213
fission-0213
fission-0213
fission-0213
fission-0213
fission-0213
fission-0213
fission-0213
fission-0213
fission-0213
fission-0219
fission-0219
fission-0219
fission-0219
fission-0219
fission-0219
fission-0219
fission-0219
fission-0219
fission-0219
fission-0219
fission-0219
fission-0219
fission-0219
fission-0219
fission-0219
fission-0219
fission-0219
fission-0219
fission-0219
fission-0219
fission-0219
fission-0219
fission-0219
fission-0219
fission-0219
fission-0219
fission-0219
fission-0219
fission-0219
fission-0219
fission-0219
fission-0211
fission-0211
fission-0211
fission-0211
fission-0211
fission-0211
fission-0211
fission-0211
fission-0211
fission-0211
fission-0211
fission-0211
fission-0211
fission-0211
fission-0211
fission-0211
fission-0211
fission-0211
fission-0211
fission-0211
fission-0211
fission-0211
fission-0211
fission-0211
fission-0211
fission-0211
fission-0211
fission-0211
fission-0211
fission-0211
fission-0211
fission-0211
fission-0212
fission-0212
fission-0212
fission-0212
fission-0212
fission-0212
fission-0212
fission-0212
fission-0212
fission-0212
fission-0212
fission-0212
fission-0212
fission-0212
fission-0212
fission-0212
fission-0212
fission-0212
fission-0212
fission-0212
fission-0212
fission-0212
fission-0212
fission-0212
fission-0212
fission-0212
fission-0212
fission-0212
fission-0212
fission-0212
fission-0212
fission-0212
fission-0220
fission-0220
fission-0220
fission-0220
fission-0220
fission-0220
fission-0220
fission-0220
fission-0220
fission-0220
fission-0220
fission-0220
fission-0220
fission-0220
fission-0220
fission-0220
fission-0220
fission-0220
fission-0220
fission-0220
fission-0220
fission-0220
fission-0220
fission-0220
fission-0220
fission-0220
fission-0220
fission-0220
fission-0220
fission-0220
fission-0220
fission-0220
fission-0223
fission-0223
fission-0223
fission-0223
fission-0223
fission-0223
fission-0223
fission-0223
fission-0223
fission-0223
fission-0223
fission-0223
fission-0223
fission-0223
fission-0223
fission-0223
fission-0223
fission-0223
fission-0223
fission-0223
fission-0223
fission-0223
fission-0223
fission-0223
fission-0223
fission-0223
fission-0223
fission-0223
fission-0223
fission-0223
fission-0223
fission-0223
fission-0221
fission-0221
fission-0221
fission-0221
fission-0221
fission-0221
fission-0221
fission-0221
fission-0221
fission-0221
fission-0221
fission-0221
fission-0221
fission-0221
fission-0221
fission-0221
fission-0221
fission-0221
fission-0221
fission-0221
fission-0221
fission-0221
fission-0221
fission-0221
fission-0221
fission-0221
fission-0221
fission-0221
fission-0221
fission-0221
fission-0221
fission-0221
fission-0204
fission-0204
fission-0204
fission-0204
fission-0204
fission-0204
fission-0204
fission-0204
fission-0204
fission-0204
fission-0204
fission-0204
fission-0204
fission-0204
fission-0204
fission-0204
fission-0204
fission-0204
fission-0204
fission-0204
fission-0204
fission-0204
fission-0204
fission-0204
fission-0204
fission-0204
fission-0204
fission-0204
fission-0204
fission-0204
fission-0204
fission-0204
fission-0200
fission-0200
fission-0200
fission-0200
fission-0200
fission-0200
fission-0200
fission-0200
fission-0200
fission-0200
fission-0200
fission-0200
fission-0200
fission-0200
fission-0200
fission-0200
fission-0200
fission-0200
fission-0200
fission-0200
fission-0200
fission-0200
fission-0200
fission-0200
fission-0200
fission-0200
fission-0200
fission-0200
fission-0200
fission-0200
fission-0200
fission-0200
fission-0198
fission-0198
fission-0198
fission-0198
fission-0198
fission-0198
fission-0198
fission-0198
fission-0198
fission-0198
fission-0198
fission-0198
fission-0198
fission-0198
fission-0198
fission-0198
fission-0198
fission-0198
fission-0198
fission-0198
fission-0198
fission-0198
fission-0198
fission-0198
fission-0198
fission-0198
fission-0198
fission-0198
fission-0198
fission-0198
fission-0198
fission-0198
fission-0199
fission-0199
fission-0199
fission-0199
fission-0199
fission-0199
fission-0199
fission-0199
fission-0199
fission-0199
fission-0199
fission-0199
fission-0199
fission-0199
fission-0199
fission-0199
fission-0199
fission-0199
fission-0199
fission-0199
fission-0199
fission-0199
fission-0199
fission-0199
fission-0199
fission-0199
fission-0199
fission-0199
fission-0199
fission-0199
fission-0199
fission-0199
fission-0201
fission-0201
fission-0201
fission-0201
fission-0201
fission-0201
fission-0201
fission-0201
fission-0201
fission-0201
fission-0201
fission-0201
fission-0201
fission-0201
fission-0201
fission-0201
fission-0201
fission-0201
fission-0201
fission-0201
fission-0201
fission-0201
fission-0201
fission-0201
fission-0201
fission-0201
fission-0201
fission-0201
fission-0201
fission-0201
fission-0201
fission-0201
fission-0203
fission-0203
fission-0203
fission-0203
fission-0203
fission-0203
fission-0203
fission-0203
fission-0203
fission-0203
fission-0203
fission-0203
fission-0203
fission-0203
fission-0203
fission-0203
fission-0203
fission-0203
fission-0203
fission-0203
fission-0203
fission-0203
fission-0203
fission-0203
fission-0203
fission-0203
fission-0203
fission-0203
fission-0203
fission-0203
fission-0203
fission-0203

The following PBS extra args (PBS_EXTRA_ARGS) will be used: -P ldrd
The following lammps extra args (LAMMPS_EXTRA_ARGS) will be used:
LAMMPS (16 Feb 2016)
#log		log.c
units           metal
dimension       3
boundary        p p p
atom_style      atomic
shell         mkdir  cfg
shell         mkdir  dump

# ----------------------- ATOM DEFINITION & Force Field -------------
# ----------------------- ATOM DEFINITION ----------------------------
lattice         fcc 4.024845358 #origin 0.0 0.0 0.0 orient x 1 -1 0 orient y 1 1 -2 orient z 1 1 1
Lattice spacing in x,y,z = 4.02485 4.02485 4.02485
variable        Lx equal 52
variable        Ly equal 2
variable        Lz equal 208
variable        boxLZ equal 218
region          SYSTEM block -52 52 -2 2 -208 0 units lattice
region          BOX block -52 52 -2 2 -218 5 units lattice
create_box      1 BOX
Created orthogonal box = (-209.292 -8.04969 -877.416) to (209.292 8.04969 20.1242)
create_atoms    1 region SYSTEM
Created 346944 atoms

delete_atoms     porosity BOX 0.0005 6569    ##random seed <RAND1>
Deleted 176 atoms, new total = 346768

#---------------------------------------------------------------------------------
pair_style      eam/alloy
pair_coeff  	  * * Al_wkg_MSMSE_2009.set Al

#----------------------------------------------------------------------------------
velocity       all create 300.0 11275 mom yes rot yes dist gaussian         ##random seed <RAND2>

fix             1 all npt temp 300 300 0.1 iso 0.0 0.0 2
run      10000
  1 neighbor list requests
  update every 1 steps, delay 10 steps, check yes
Setting up Verlet run ...
  Unit style  : metal
  Current step: 0
  Time step   : 0.001
Step Temp E_pair E_mol TotEng Press Volume
0          300   -916636.43            0   -903189.48    2034.7236    6048473.6
Loop time of 58.4435 on 512 procs for 10000 steps with 346768 atoms

unfix 1

fix            2 all nvt temp 300.0 300.0 0.1

run      10000
Setting up Verlet run ...
  Unit style  : metal
  Current step: 10000
  Time step   : 0.001
Step Temp E_pair E_mol TotEng Press
10000    300.06696   -902575.39            0   -889125.44   -21.916446
Loop time of 59.5432 on 512 procs for 10000 steps with 346768 atoms

reset_timestep 0
unfix    2
#---------------------- DEFINE Laser GERION and GROUP ----------------
region       R1  block -75  75  INF  INF  INF  5  units box
group        G1 region R1
123620 atoms in group G1
group        G2 subtract all G1
223148 atoms in group G2

#define     temperature/pressure calculation  group
variable    x1atom atom "x>=0  &&  x<4 &&  z>-40 && z<1"     ##NEW!!!!!!!!!!!!
variable    x2atom atom "x>=-209.292  &&  x<-205.292 &&  z>-40 && z<1"
variable    x3atom atom "x>=0  &&  x<4 &&  z>-20 && z<1"
variable    x4atom atom "x>=-209.292  &&  x<-205.292 &&  z>-20 && z<1"
variable    x5atom atom "x>=196  &&  x<200 &&  z>-40 && z<1"

group       x1atom variable x1atom
135 atoms in group x1atom
group       x2atom variable x2atom
160 atoms in group x2atom
group       x3atom variable x3atom
65 atoms in group x3atom
group       x4atom variable x4atom
80 atoms in group x4atom
group       x5atom variable x5atom
160 atoms in group x5atom

compute      COM1x x1atom com
compute      COM2x x2atom com
compute      COM3x x3atom com
compute      COM4x x4atom com
compute      COM5x x5atom com

compute      COMall all com

#Temperature profile
#variable      Tprofile atom 300*(1+(step/5000)*2.5*exp(z/40))
variable      Tprofile atom 300*(1+(step/5000)*2.5*exp(z/75))

# ------------------------- SETTINGS ---------------------------------
thermo          100
thermo_style    custom step lx pxx pyy pzz temp c_COM1x[1] c_COM1x[2] c_COM1x[3] c_COM2x[1] c_COM2x[2] c_COM2x[3] c_COM3x[1] c_COM3x[2] c_COM3x[3] c_COM4x[1] c_COM4x[2] c_COM4x[3]  c_COM5x[1] c_COM5x[2] c_COM5x[3] c_COMall[1] c_COMall[2] c_COMall[3]

timestep       0.002

compute dispall all displace/atom
# ---------------- Run Laser Material Interaction --------------------
#dump          1 all custom 1000 dump/z1dump.atom id type x y z c_dispall[1]  c_dispall[2]  c_dispall[3] c_dispall[4]
#dump          2 all cfg 100 cfg/*.cfg mass type xs ys zs
#dump_modify   2 element Al

#relax for 2 PS
#fix           1 all nvt temp 300.0 300.0 0.1
#run  1000
#unfix         1

fix           1  all nve
fix           3temp  G1  langevin  v_Tprofile  0  0.1  378411   #TEST ALL
run           5000
Setting up Verlet run ...
  Unit style  : metal
  Current step: 0
  Time step   : 0.002
Step Lx Pxx Pyy Pzz Temp COM1x[1] COM1x[2] COM1x[3] COM2x[1] COM2x[2] COM2x[3] COM3x[1] COM3x[2] COM3x[3] COM4x[1] COM4x[2] COM4x[3] COM5x[1] COM5x[2] COM5x[3] COMall[1 COMall[2 COMall[3
0    421.49357    351.66587    317.42288   -121.17273    300.14137    1.8102078   -0.6535029   -20.229719   -207.83491  -0.96949746   -19.598539    2.2473004  -0.60328478   -9.6313937   -207.90852  -0.97213544   -9.4152164    197.46622  -0.92826292   -19.747783   -1.0158412   -1.0131648   -418.52705
Averages over the last 26 of 51 rows, steps 2500 to 5000:
Lx Pxx Pyy Pzz Temp COM1x[1] COM1x[2] COM1x[3] COM2x[1] COM2x[2] COM2x[3] COM3x[1] COM3x[2] COM3x[3] COM4x[1] COM4x[2] COM4x[3] COM5x[1] COM5x[2] COM5x[3] COMall[1 COMall[2 COMall[3
421.494 1356.07 1307.12 681.115 322.127 1.7752 -0.610183 -19.9133 -207.779 -1.07658 -19.6952 2.26553 -0.515291 -9.15721 -207.786 -1.07119 -9.51947 197.574 -1.06837 -19.7041 -1.00539 -1.00605 -418.542
Loop time of 30.2896 on 512 procs for 5000 steps with 346768 atoms

variable  com1_x equal "c_COM1x[1]"
variable  com1_y equal "c_COM1x[2]"
variable  com1_z equal "c_COM1x[3]"
variable  com2_x equal "c_COM2x[1]"
variable  com2_y equal "c_COM2x[2]"
variable  com2_z equal "c_COM2x[3]"
variable  com3_x equal "c_COM3x[1]"
variable  com3_y equal "c_COM3x[2]"
variable  com3_z equal "c_COM3x[3]"
variable  com4_x equal "c_COM4x[1]"
variable  com4_y equal "c_COM4x[2]"
variable  com4_z equal "c_COM4x[3]"
variable  com5_x equal "c_COM5x[1]"
variable  com5_y equal "c_COM5x[2]"
variable  com5_z equal "c_COM5x[3]"
variable  comall_x equal "c_COMall[1]"
variable  comall_y equal "c_COMall[2]"
variable  comall_z equal "c_COMall[3]"

#-------------------------- Wave Propagation -------------------------
unfix        3temp
run          1000000
Setting up Verlet run ...
  Unit style  : metal
  Current step: 5000
  Time step   : 0.002
Step Lx Pxx Pyy Pzz Temp COM1x[1] COM1x[2] COM1x[3] COM2x[1] COM2x[2] COM2x[3] COM3x[1] COM3x[2] COM3x[3] COM4x[1] COM4x[2] COM4x[3] COM5x[1] COM5x[2] COM5x[3] COMall[1 COMall[2 COMall[3
5000    421.49357    1616.1944    1545.7672    755.07355    329.94309    1.7132574  -0.48891523   -19.648927   -207.70752   -1.0062316   -19.498425    2.1210254  -0.30477702   -8.7380544   -207.70639  -0.98385804   -9.2716986    197.64035   -1.0366676    -19.58759    -1.012664   -1.0018977   -418.54384
Averages over the last 5001 of 10001 rows, steps 505000 to 1005000:
Lx Pxx Pyy Pzz Temp COM1x[1] COM1x[2] COM1x[3] COM2x[1] COM2x[2] COM2x[3] COM3x[1] COM3x[2] COM3x[3] COM4x[1] COM4x[2] COM4x[3] COM5x[1] COM5x[2] COM5x[3] COMall[1 COMall[2 COMall[3
421.494 1200.42 1177.34 -6.49223 330.838 -4.811 10.0557 -31.5543 -214.313 9.65906 -31.0297 -4.30548 10.0787 -20.9493 -214.312 9.65946 -20.8642 190.969 9.65956 -31.0311 -7.6235 9.66038 -430.498
Loop time of 5790.8 on 512 procs for 1000000 steps with 346768 atoms
