fission-0166
fission-0166
fission-0166
fission-0166
fission-0166
fission-0166
fission-0166
fission-0166
fission-0166
fission-0166
fission-0166
fission-0166
fission-0166
fission-0166
fission-0166
fission-0166
fission-0166
fission-0166
fission-0166
fission-0166
fission-0166
fission-0166
fission-0166
fission-0166
fission-0166
fission-0166
fission-0166
fission-0166
fission-0166
fission-0166
fission-0166
fission-0166
fission-0156
fission-0156
fission-0156
fission-0156
fission-0156
fission-0156
fission-0156
fission-0156
fission-0156
fission-0156
fission-0156
fission-0156
fission-0156
fission-0156
fission-0156
fission-0156
fission-0156
fission-0156
fission-0156
fission-0156
fission-0156
fission-0156
fission-0156
fission-0156
fission-0156
fission-0156
fission-0156
fission-0156
fission-0156
fission-0156
fission-0156
fission-0156
fission-0159
fission-0159
fission-0159
fission-0159
fission-0159
fission-0159
fission-0159
fission-0159
fission-0159
fission-0159
fission-0159
fission-0159
fission-0159
fission-0159
fission-0159
fission-0159
fission-0159
fission-0159
fission-0159
fission-0159
fission-0159
fission-0159
fission-0159
fission-0159
fission-0159
fission-0159
fission-0159
fission-0159
fission-0159
fission-0159
fission-0159
fission-0159
fission-0155
fission-0155
fission-0155
fission-0155
fission-0155
fission-0155
fission-0155
fission-0155
fission-0155
fission-0155
fission-0155
fission-0155
fission-0155
fission-0155
fission-0155
fission-0155
fission-0155
fission-0155
fission-0155
fission-0155
fission-0155
fission-0155
fission-0155
fission-0155
fission-0155
fission-0155
fission-0155
fission-0155
fission-0155
fission-0155
fission-0155
fission-0155
fission-0146
fission-0146
fission-0146
fission-0146
fission-0146
fission-0146
fission-0146
fission-0146
fission-0146
fission-0146
fission-0146
fission-0146
fission-0146
fission-0146
fission-0146
fission-0146
fission-0146
fission-0146
fission-0146
fission-0146
fission-0146
fission-0146
fission-0146
fission-0146
fission-0146
fission-0146
fission-0146
fission-0146
fission-0146
fission-0146
fission-0146
fission-0146
fission-0148
fission-0148
fission-0148
fission-0148
fission-0148
fission-0148
fission-0148
fission-0148
fission-0148
fission-0148
fission-0148
fission-0148
fission-0148
fission-0148
fission-0148
fission-0148
fission-0148
fission-0148
fission-0148
fission-0148
fission-0148
fission-0148
fission-0148
fission-0148
fission-0148
fission-0148
fission-0148
fission-0148
fission-0148
fission-0148
fission-0148
fission-0148
fission-0149
fission-0149
fission-0149
fission-0149
fission-0149
fission-0149
fission-0149
fission-0149
fission-0149
fission-0149
fission-0149
fission-0149
fission-0149
fission-0149
fission-0149
fission-0149
fission-0149
fission-0149
fission-0149
fission-0149
fission-0149
fission-0149
fission-0149
fission-0149
fission-0149
fission-0149
fission-0149
fission-0149
fission-0149
fission-0149
fission-0149
fission-0149
fission-0151
fission-0151
fission-0151
fission-0151
fission-0151
fission-0151
fission-0151
fission-0151
fission-0151
fission-0151
fission-0151
fission-0151
fission-0151
fission-0151
fission-0151
fission-0151
fission-0151
fission-0151
fission-0151
fission-0151
fission-0151
fission-0151
fission-0151
fission-0151
fission-0151
fission-0151
fission-0151
fission-0151
fission-0151
fission-0151
fission-0151
fission-0151
fission-0154
fission-0154
fission-0154
fission-0154
fission-0154
fission-0154
fission-0154
fission-0154
fission-0154
fission-0154
fission-0154
fission-0154
fission-0154
fission-0154
fission-0154
fission-0154
fission-0154
fission-0154
fission-0154
fission-0154
fission-0154
fission-0154
fission-0154
fission-0154
fission-0154
fission-0154
fission-0154
fission-0154
fission-0154
fission-0154
fission-0154
fission-0154
fission-0153
fission-0153
fission-0153
fission-0153
fission-0153
fission-0153
fission-0153
fission-0153
fission-0153
fission-0153
fission-0153
fission-0153
fission-0153
fission-0153
fission-0153
fission-0153
fission-0153
fission-0153
fission-0153
fission-0153
fission-0153
fission-0153
fission-0153
fission-0153
fission-0153
fission-0153
fission-0153
fission-0153
fission-0153
fission-0153
fission-0153
fission-0153
fission-0152
fission-0152
fission-0152
fission-0152
fission-0152
fission-0152
fission-0152
fission-0152
fission-0152
fission-0152
fission-0152
fission-0152
fission-0152
fission-0152
fission-0152
fission-0152
fission-0152
fission-0152
fission-0152
fission-0152
fission-0152
fission-0152
fission-0152
fission-0152
fission-0152
fission-0152
fission-0152
fission-0152
fission-0152
fission-0152
fission-0152
fission-0152
fission-0157
fission-0157
fission-0157
fission-0157
fission-0157
fission-0157
fission-0157
fission-0157
fission-0157
fission-0157
fission-0157
fission-0157
fission-0157
fission-0157
fission-0157
fission-0157
fission-0157
fission-0157
fission-0157
fission-0157
fission-0157
fission-0157
fission-0157
fission-0157
fission-0157
fission-0157
fission-0157
fission-0157
fission-0157
fission-0157
fission-0157
fission-0157
fission-0141
fission-0141
fission-0141
fission-0141
fission-0141
fission-0141
fission-0141
fission-0141
fission-0141
fission-0141
fission-0141
fission-0141
fission-0141
fission-0141
fission-0141
fission-0141
fission-0141
fission-0141
fission-0141
fission-0141
fission-0141
fission-0141
fission-0141
fission-0141
fission-0141
fission-0141
fission-0141
fission-0141
fission-0141
fission-0141
fission-0141
fission-0141
fission-0163
fission-0163
fission-0163
fission-0163
fission-0163
fission-0163
fission-0163
fission-0163
fission-0163
fission-0163
fission-0163
fission-0163
fission-0163
fission-0163
fission-0163
fission-0163
fission-0163
fission-0163
fission-0163
fission-0163
fission-0163
fission-0163
fission-0163
fission-0163
fission-0163
fission-0163
fission-0163
fission-0163
fission-0163
fission-0163
fission-0163
fission-0163
fission-0147
fission-0147
fission-0147
fission-0147
fission-0147
fission-0147
fission-0147
fission-0147
fission-0147
fission-0147
fission-0147
fission-0147
fission-0147
fission-0147
fission-0147
fission-0147
fission-0147
fission-0147
fission-0147
fission-0147
fission-0147
fission-0147
fission-0147
fission-0147
fission-0147
fission-0147
fission-0147
fission-0147
fission-0147
fission-0147
fission-0147
fission-0147
fission-0162
fission-0162
fission-0162
fission-0162
fission-0162
fission-0162
fission-0162
fission-0162
fission-0162
fission-0162
fission-0162
fission-0162
fission-0162
fission-0162
fission-0162
fission-0162
fission-0162
fission-0162
fission-0162
fission-0162
fission-0162
fission-0162
fission-0162
fission-0162
fission-0162
fission-0162
fission-0162
fission-0162
fission-0162
fission-0162
fission-0162
fission-0162

The following PBS extra args (PBS_EXTRA_ARGS) will be used: -P ldrd
The following lammps extra args (LAMMPS_EXTRA_ARGS) will be used:
LAMMPS (16 Feb 2016)
#log		log.c
units           metal
dimension       3
boundary        p p p
atom_style      atomic
shell         mkdir  cfg
shell         mkdir  dump

# ----------------------- ATOM DEFINITION & Force Field -------------
# ----------------------- ATOM DEFINITION ----------------------------
lattice         fcc 4.024845358 #origin 0.0 0.0 0.0 orient x 1 -1 0 orient y 1 1 -2 orient z 1 1 1
Lattice spacing in x,y,z = 4.02485 4.02485 4.02485
variable        Lx equal 52
variable        Ly equal 2
variable        Lz equal 208
variable        boxLZ equal 218
region          SYSTEM block -52 52 -2 2 -208 0 units lattice
region          BOX block -52 52 -2 2 -218 5 units lattice
create_box      1 BOX
Created orthogonal box = (-209.292 -8.04969 -877.416) to (209.292 8.04969 20.1242)
create_atoms    1 region SYSTEM
Created 346944 atoms

delete_atoms     porosity BOX 0.0005 29042    ##random seed <RAND1>
Deleted 173 atoms, new total = 346771

#---------------------------------------------------------------------------------
pair_style      eam/alloy
pair_coeff  	  * * Al_wkg_MSMSE_2009.set Al

#----------------------------------------------------------------------------------
velocity       all create 300.0 16847 mom yes rot yes dist gaussian         ##random seed <RAND2>

fix             1 all npt temp 300 300 0.1 iso 0.0 0.0 2
run      10000
  1 neighbor list requests
  update every 1 steps, delay 10 steps, check yes
Setting up Verlet run ...
  Unit style  : metal
  Current step: 0
  Time step   : 0.001
Step Temp E_pair E_mol TotEng Press Volume
0          300   -916646.74            0   -903199.68    2035.9368    6048473.6
Loop time of 59.7749 on 512 procs for 10000 steps with 346771 atoms

unfix 1

fix            2 all nvt temp 300.0 300.0 0.1

run      10000
Setting up Verlet run ...
  Unit style  : metal
  Current step: 10000
  Time step   : 0.001
Step Temp E_pair E_mol TotEng Press
10000    299.95801    -902578.8            0   -889133.62   -26.613467
Loop time of 57.9766 on 512 procs for 10000 steps with 346771 atoms

reset_timestep 0
unfix    2
#---------------------- DEFINE Laser GERION and GROUP ----------------
region       R1  block -75  75  INF  INF  INF  5  units box
group        G1 region R1
123598 atoms in group G1
group        G2 subtract all G1
223173 atoms in group G2

#define     temperature/pressure calculation  group
variable    x1atom atom "x>=0  &&  x<4 &&  z>-40 && z<1"     ##NEW!!!!!!!!!!!!
variable    x2atom atom "x>=-209.292  &&  x<-205.292 &&  z>-40 && z<1"
variable    x3atom atom "x>=0  &&  x<4 &&  z>-20 && z<1"
variable    x4atom atom "x>=-209.292  &&  x<-205.292 &&  z>-20 && z<1"
variable    x5atom atom "x>=196  &&  x<200 &&  z>-40 && z<1"

group       x1atom variable x1atom
140 atoms in group x1atom
group       x2atom variable x2atom
160 atoms in group x2atom
group       x3atom variable x3atom
73 atoms in group x3atom
group       x4atom variable x4atom
80 atoms in group x4atom
group       x5atom variable x5atom
160 atoms in group x5atom

compute      COM1x x1atom com
compute      COM2x x2atom com
compute      COM3x x3atom com
compute      COM4x x4atom com
compute      COM5x x5atom com

compute      COMall all com

#Temperature profile
#variable      Tprofile atom 300*(1+(step/5000)*2.5*exp(z/40))
variable      Tprofile atom 300*(1+(step/5000)*2.5*exp(z/75))

# ------------------------- SETTINGS ---------------------------------
thermo          100
thermo_style    custom step lx pxx pyy pzz temp c_COM1x[1] c_COM1x[2] c_COM1x[3] c_COM2x[1] c_COM2x[2] c_COM2x[3] c_COM3x[1] c_COM3x[2] c_COM3x[3] c_COM4x[1] c_COM4x[2] c_COM4x[3]  c_COM5x[1] c_COM5x[2] c_COM5x[3] c_COMall[1] c_COMall[2] c_COMall[3]

timestep       0.002

compute dispall all displace/atom
# ---------------- Run Laser Material Interaction --------------------
#dump          1 all custom 1000 dump/z1dump.atom id type x y z c_dispall[1]  c_dispall[2]  c_dispall[3] c_dispall[4]
#dump          2 all cfg 100 cfg/*.cfg mass type xs ys zs
#dump_modify   2 element Al

#relax for 2 PS
#fix           1 all nvt temp 300.0 300.0 0.1
#run  1000
#unfix         1

fix           1  all nve
fix           3temp  G1  langevin  v_Tprofile  0  0.1  378411   #TEST ALL
run           5000
Setting up Verlet run ...
  Unit style  : metal
  Current step: 0
  Time step   : 0.002
Step Lx Pxx Pyy Pzz Temp COM1x[1] COM1x[2] COM1x[3] COM2x[1] COM2x[2] COM2x[3] COM3x[1] COM3x[2] COM3x[3] COM4x[1] COM4x[2] COM4x[3] COM5x[1] COM5x[2] COM5x[3] COMall[1 COMall[2 COMall[3
0    421.59017    103.66278    104.19154   -172.74265    299.78573     1.979976  -0.91937903   -19.350336   -207.80063   -1.0178495   -19.862293    1.6947049  -0.61058279   -9.7328103    -207.7999   -1.0793042   -9.7197949    197.55151  -0.98154212   -19.900589    -1.018035   -1.0133532   -418.50916
Averages over the last 26 of 51 rows, steps 2500 to 5000:
Lx Pxx Pyy Pzz Temp COM1x[1] COM1x[2] COM1x[3] COM2x[1] COM2x[2] COM2x[3] COM3x[1] COM3x[2] COM3x[3] COM4x[1] COM4x[2] COM4x[3] COM5x[1] COM5x[2] COM5x[3] COMall[1 COMall[2 COMall[3
421.59 1202.95 1142.67 778.804 322.653 1.90326 -0.9434 -19.0424 -207.847 -1.04608 -19.7973 1.57826 -0.614982 -9.22027 -207.853 -1.05064 -9.62991 197.596 -1.02892 -19.7972 -1.01148 -0.973279 -418.499
Loop time of 30.2574 on 512 procs for 5000 steps with 346771 atoms

variable  com1_x equal "c_COM1x[1]"
variable  com1_y equal "c_COM1x[2]"
variable  com1_z equal "c_COM1x[3]"
variable  com2_x equal "c_COM2x[1]"
variable  com2_y equal "c_COM2x[2]"
variable  com2_z equal "c_COM2x[3]"
variable  com3_x equal "c_COM3x[1]"
variable  com3_y equal "c_COM3x[2]"
variable  com3_z equal "c_COM3x[3]"
variable  com4_x equal "c_COM4x[1]"
variable  com4_y equal "c_COM4x[2]"
variable  com4_z equal "c_COM4x[3]"
variable  com5_x equal "c_COM5x[1]"
variable  com5_y equal "c_COM5x[2]"
variable  com5_z equal "c_COM5x[3]"
variable  comall_x equal "c_COMall[1]"
variable  comall_y equal "c_COMall[2]"
variable  comall_z equal "c_COMall[3]"

#-------------------------- Wave Propagation -------------------------
unfix        3temp
run          1000000
Setting up Verlet run ...
  Unit style  : metal
  Current step: 5000
  Time step   : 0.002
Step Lx Pxx Pyy Pzz Temp COM1x[1] COM1x[2] COM1x[3] COM2x[1] COM2x[2] COM2x[3] COM3x[1] COM3x[2] COM3x[3] COM4x[1] COM4x[2] COM4x[3] COM5x[1] COM5x[2] COM5x[3] COMall[1 COMall[2 COMall[3
5000    421.59017    1513.3104    1456.3752    943.53929    330.98549    1.8643104  -0.78250393   -18.897966   -207.80295   -1.1121307   -19.766398    1.5347653  -0.42865407   -9.0813933   -207.75758   -1.0896246    -9.625613    197.64322   -1.2086285   -19.657463    -1.018002  -0.98097029   -418.50789
Averages over the last 5001 of 10001 rows, steps 505000 to 1005000:
Lx Pxx Pyy Pzz Temp COM1x[1] COM1x[2] COM1x[3] COM2x[1] COM2x[2] COM2x[3] COM3x[1] COM3x[2] COM3x[3] COM4x[1] COM4x[2] COM4x[3] COM5x[1] COM5x[2] COM5x[3] COMall[1 COMall[2 COMall[3
421.59 1003.97 980.555 -6.64104 331.754 -20.7897 -8.38352 -40.7319 -230.571 -8.46981 -41.1208 -21.1058 -8.1235 -31.0879 -230.572 -8.4699 -30.9563 174.803 -8.4698 -41.1207 -23.8322 -8.46976 -440.504
Loop time of 5690.63 on 512 procs for 1000000 steps with 346771 atoms
