fission-0363
fission-0363
fission-0363
fission-0363
fission-0363
fission-0363
fission-0363
fission-0363
fission-0363
fission-0363
fission-0363
fission-0363
fission-0363
fission-0363
fission-0363
fission-0363
fission-0363
fission-0363
fission-0363
fission-0363
fission-0363
fission-0363
fission-0363
fission-0363
fission-0363
fission-0363
fission-0363
fission-0363
fission-0363
fission-0363
fission-0363
fission-0363
fission-0342
fission-0342
fission-0342
fission-0342
fission-0342
fission-0342
fission-0342
fission-0342
fission-0342
fission-0342
fission-0342
fission-0342
fission-0342
fission-0342
fission-0342
fission-0342
fission-0342
fission-0342
fission-0342
fission-0342
fission-0342
fission-0342
fission-0342
fission-0342
fission-0342
fission-0342
fission-0342
fission-0342
fission-0342
fission-0342
fission-0342
fission-0342
fission-0343
fission-0343
fission-0343
fission-0343
fission-0343
fission-0343
fission-0343
fission-0343
fission-0343
fission-0343
fission-0343
fission-0343
fission-0343
fission-0343
fission-0343
fission-0343
fission-0343
fission-0343
fission-0343
fission-0343
fission-0343
fission-0343
fission-0343
fission-0343
fission-0343
fission-0343
fission-0343
fission-0343
fission-0343
fission-0343
fission-0343
fission-0343
fission-0344
fission-0344
fission-0344
fission-0344
fission-0344
fission-0344
fission-0344
fission-0344
fission-0344
fission-0344
fission-0344
fission-0344
fission-0344
fission-0344
fission-0344
fission-0344
fission-0344
fission-0344
fission-0344
fission-0344
fission-0344
fission-0344
fission-0344
fission-0344
fission-0344
fission-0344
fission-0344
fission-0344
fission-0344
fission-0344
fission-0344
fission-0344
fission-0306
fission-0306
fission-0306
fission-0306
fission-0306
fission-0306
fission-0306
fission-0306
fission-0306
fission-0306
fission-0306
fission-0306
fission-0306
fission-0306
fission-0306
fission-0306
fission-0306
fission-0306
fission-0306
fission-0306
fission-0306
fission-0306
fission-0306
fission-0306
fission-0306
fission-0306
fission-0306
fission-0306
fission-0306
fission-0306
fission-0306
fission-0306
fission-0348
fission-0348
fission-0348
fission-0348
fission-0348
fission-0348
fission-0348
fission-0348
fission-0348
fission-0348
fission-0348
fission-0348
fission-0348
fission-0348
fission-0348
fission-0348
fission-0348
fission-0348
fission-0348
fission-0348
fission-0348
fission-0348
fission-0348
fission-0348
fission-0348
fission-0348
fission-0348
fission-0348
fission-0348
fission-0348
fission-0348
fission-0348
fission-0351
fission-0351
fission-0351
fission-0351
fission-0351
fission-0351
fission-0351
fission-0351
fission-0351
fission-0351
fission-0351
fission-0351
fission-0351
fission-0351
fission-0351
fission-0351
fission-0351
fission-0351
fission-0351
fission-0351
fission-0351
fission-0351
fission-0351
fission-0351
fission-0351
fission-0351
fission-0351
fission-0351
fission-0351
fission-0351
fission-0351
fission-0351
fission-0068
fission-0068
fission-0068
fission-0068
fission-0068
fission-0068
fission-0068
fission-0068
fission-0068
fission-0068
fission-0068
fission-0068
fission-0068
fission-0068
fission-0068
fission-0068
fission-0068
fission-0068
fission-0068
fission-0068
fission-0068
fission-0068
fission-0068
fission-0068
fission-0068
fission-0068
fission-0068
fission-0068
fission-0068
fission-0068
fission-0068
fission-0068
fission-0094
fission-0094
fission-0094
fission-0094
fission-0094
fission-0094
fission-0094
fission-0094
fission-0094
fission-0094
fission-0094
fission-0094
fission-0094
fission-0094
fission-0094
fission-0094
fission-0094
fission-0094
fission-0094
fission-0094
fission-0094
fission-0094
fission-0094
fission-0094
fission-0094
fission-0094
fission-0094
fission-0094
fission-0094
fission-0094
fission-0094
fission-0094
fission-0245
fission-0245
fission-0245
fission-0245
fission-0245
fission-0245
fission-0245
fission-0245
fission-0245
fission-0245
fission-0245
fission-0245
fission-0245
fission-0245
fission-0245
fission-0245
fission-0245
fission-0245
fission-0245
fission-0245
fission-0245
fission-0245
fission-0245
fission-0245
fission-0245
fission-0245
fission-0245
fission-0245
fission-0245
fission-0245
fission-0245
fission-0245
fission-0360
fission-0360
fission-0360
fission-0360
fission-0360
fission-0360
fission-0360
fission-0360
fission-0360
fission-0360
fission-0360
fission-0360
fission-0360
fission-0360
fission-0360
fission-0360
fission-0360
fission-0360
fission-0360
fission-0360
fission-0360
fission-0360
fission-0360
fission-0360
fission-0360
fission-0360
fission-0360
fission-0360
fission-0360
fission-0360
fission-0360
fission-0360
fission-0192
fission-0192
fission-0192
fission-0192
fission-0192
fission-0192
fission-0192
fission-0192
fission-0192
fission-0192
fission-0192
fission-0192
fission-0192
fission-0192
fission-0192
fission-0192
fission-0192
fission-0192
fission-0192
fission-0192
fission-0192
fission-0192
fission-0192
fission-0192
fission-0192
fission-0192
fission-0192
fission-0192
fission-0192
fission-0192
fission-0192
fission-0192
fission-0105
fission-0105
fission-0105
fission-0105
fission-0105
fission-0105
fission-0105
fission-0105
fission-0105
fission-0105
fission-0105
fission-0105
fission-0105
fission-0105
fission-0105
fission-0105
fission-0105
fission-0105
fission-0105
fission-0105
fission-0105
fission-0105
fission-0105
fission-0105
fission-0105
fission-0105
fission-0105
fission-0105
fission-0105
fission-0105
fission-0105
fission-0105
fission-0214
fission-0214
fission-0214
fission-0214
fission-0214
fission-0214
fission-0214
fission-0214
fission-0214
fission-0214
fission-0214
fission-0214
fission-0214
fission-0214
fission-0214
fission-0214
fission-0214
fission-0214
fission-0214
fission-0214
fission-0214
fission-0214
fission-0214
fission-0214
fission-0214
fission-0214
fission-0214
fission-0214
fission-0214
fission-0214
fission-0214
fission-0214
fission-0097
fission-0097
fission-0097
fission-0097
fission-0097
fission-0097
fission-0097
fission-0097
fission-0097
fission-0097
fission-0097
fission-0097
fission-0097
fission-0097
fission-0097
fission-0097
fission-0097
fission-0097
fission-0097
fission-0097
fission-0097
fission-0097
fission-0097
fission-0097
fission-0097
fission-0097
fission-0097
fission-0097
fission-0097
fission-0097
fission-0097
fission-0097
fission-0168
fission-0168
fission-0168
fission-0168
fission-0168
fission-0168
fission-0168
fission-0168
fission-0168
fission-0168
fission-0168
fission-0168
fission-0168
fission-0168
fission-0168
fission-0168
fission-0168
fission-0168
fission-0168
fission-0168
fission-0168
fission-0168
fission-0168
fission-0168
fission-0168
fission-0168
fission-0168
fission-0168
fission-0168
fission-0168
fission-0168
fission-0168

The following PBS extra args (PBS_EXTRA_ARGS) will be used: -P ldrd
The following lammps extra args (LAMMPS_EXTRA_ARGS) will be used:
LAMMPS (16 Feb 2016)
#log		log.c
units           metal
dimension       3
boundary        p p p
atom_style      atomic
shell         mkdir  cfg
shell         mkdir  dump

# ----------------------- ATOM DEFINITION & Force Field -------------
lattice         fcc 3.615 #origin 0.0 0.0 0.0 orient x 1 -1 0 orient y 1 1 -2 orient z 1 1 1
Lattice spacing in x,y,z = 3.615 3.615 3.615
variable        Lx equal 65
variable        Ly equal 3
variable        Lz equal 260
variable        boxLZ equal 270
region          SYSTEM block -65 65 -3 3 -260 0 units lattice
region          BOX block -65 65 -3 3 -270 5 units lattice
create_box      1 BOX
Created orthogonal box = (-234.975 -10.845 -976.05) to (234.975 10.845 18.075)
create_atoms    1 region SYSTEM
Created 812760 atoms

delete_atoms     porosity BOX 0.01 17639
Deleted 8188 atoms, new total = 804572

#---------------------------------------------------------------------

pair_style      eam/alloy
pair_coeff  	  * * Cu01.eam.alloy Cu

#----------------------------------------------------------------------
velocity       all create 300.0 32415 mom yes rot yes dist gaussian
fix             1 all npt temp 300 300 0.1 iso 0.0 0.0 2
run      10000
  1 neighbor list requests
  update every 1 steps, delay 10 steps, check yes
Setting up Verlet run ...
  Unit style  : metal
  Current step: 0
  Time step   : 0.001
Step Temp E_pair E_mol TotEng Press Volume
0          300   -2835803.8            0   -2804604.1    -83.91763     10133330
Loop time of 129.865 on 512 procs for 10000 steps with 804572 atoms

unfix 1

fix            2 all nvt temp 300.0 300.0 0.1

run      10000
Setting up Verlet run ...
  Unit style  : metal
  Current step: 10000
  Time step   : 0.001
Step Temp E_pair E_mol TotEng Press
10000    299.93826   -2804330.2            0   -2773136.9   -3.2301423
Loop time of 151.472 on 512 procs for 10000 steps with 804572 atoms

reset_timestep 0
unfix    2
#---------------------- DEFINE Laser GERION and GROUP ----------------
region       R1  block -75  75  INF  INF  INF  5  units box
group        G1 region R1
256926 atoms in group G1
group        G2 subtract all G1
547646 atoms in group G2

#define     temperature/pressure calculation  group
variable    x1atom atom "x>=0  &&  x<4 &&  z>-40 && z<1"     ##NEW!!!!!!!!!!!!
variable    x2atom atom "x>=-234.98  &&  x<-230.98 &&  z>-40 && z<1"
variable    x3atom atom "x>=0  &&  x<4 &&  z>-20 && z<1"
variable    x4atom atom "x>=-234.98  &&  x<-230.98 &&  z>-20 && z<1"
variable    x5atom atom "x>=196  &&  x<200 &&  z>-40 && z<1"

group       x1atom variable x1atom
324 atoms in group x1atom
group       x2atom variable x2atom
272 atoms in group x2atom
group       x3atom variable x3atom
166 atoms in group x3atom
group       x4atom variable x4atom
141 atoms in group x4atom
group       x5atom variable x5atom
308 atoms in group x5atom

compute      COM1x x1atom com
compute      COM2x x2atom com
compute      COM3x x3atom com
compute      COM4x x4atom com
compute      COM5x x5atom com

compute      COMall all com

#Temperature profile
#variable      Tprofile atom 300*(1+(step/5000)*2.5*exp(z/40))
#variable tmp equal "lz"
variable      Tprofile atom  300+600*(step/5000)*exp(z/40)*exp(-x*x/1289)

# ------------------------- SETTINGS ---------------------------------
thermo          100
thermo_style    custom step lx pxx pyy pzz temp c_COM1x[1] c_COM1x[2] c_COM1x[3] c_COM2x[1] c_COM2x[2] c_COM2x[3] c_COM3x[1] c_COM3x[2] c_COM3x[3] c_COM4x[1] c_COM4x[2] c_COM4x[3]  c_COM5x[1] c_COM5x[2] c_COM5x[3] c_COMall[1] c_COMall[2] c_COMall[3]

timestep       0.002

compute dispall all displace/atom
# ---------------- Run Laser Material Interaction --------------------
#dump          1 all custom 1000 dump/z1dump.atom id type x y z c_dispall[1]  c_dispall[2]  c_dispall[3] c_dispall[4]
#dump          2 all cfg 100 cfg/*.cfg mass type xs ys zs
#dump_modify   2 element Al

#relax for 2 PS
#fix           1 all nvt temp 300.0 300.0 0.1
#run  1000
#unfix         1

fix           1  all nve
fix           3temp  all  langevin  v_Tprofile  0  0.1  378411   #TEST ALL
run           5000
Setting up Verlet run ...
  Unit style  : metal
  Current step: 0
  Time step   : 0.002
Step Lx Pxx Pyy Pzz Temp COM1x[1] COM1x[2] COM1x[3] COM2x[1] COM2x[2] COM2x[3] COM3x[1] COM3x[2] COM3x[3] COM4x[1] COM4x[2] COM4x[3] COM5x[1] COM5x[2] COM5x[3] COMall[1 COMall[2 COMall[3
0    471.58876   -405.23701   -411.55734   -350.67165    299.92635    2.2668274  -0.86766377   -19.863896   -233.00609   -0.9729136   -19.825175    2.2980288  -0.90883557   -9.7999116   -232.98168  -0.94178817   -9.8129591    198.36273  -0.97042418   -19.131289  -0.91914945  -0.90629728   -470.01127
Averages over the last 26 of 51 rows, steps 2500 to 5000:
Lx Pxx Pyy Pzz Temp COM1x[1] COM1x[2] COM1x[3] COM2x[1] COM2x[2] COM2x[3] COM3x[1] COM3x[2] COM3x[3] COM4x[1] COM4x[2] COM4x[3] COM5x[1] COM5x[2] COM5x[3] COMall[1 COMall[2 COMall[3
471.589 -288.442 -277.556 -278.138 302.683 2.28337 -0.823724 -19.8065 -233.003 -0.956693 -19.7912 2.3003 -0.884517 -9.62918 -233.019 -0.954468 -9.79218 198.353 -0.96428 -19.1045 -0.92088 -0.906035 -470.012
Loop time of 76.1389 on 512 procs for 5000 steps with 804572 atoms

variable  com1_x equal "c_COM1x[1]"
variable  com1_y equal "c_COM1x[2]"
variable  com1_z equal "c_COM1x[3]"
variable  com2_x equal "c_COM2x[1]"
variable  com2_y equal "c_COM2x[2]"
variable  com2_z equal "c_COM2x[3]"
variable  com3_x equal "c_COM3x[1]"
variable  com3_y equal "c_COM3x[2]"
variable  com3_z equal "c_COM3x[3]"
variable  com4_x equal "c_COM4x[1]"
variable  com4_y equal "c_COM4x[2]"
variable  com4_z equal "c_COM4x[3]"
variable  com5_x equal "c_COM5x[1]"
variable  com5_y equal "c_COM5x[2]"
variable  com5_z equal "c_COM5x[3]"
variable  comall_x equal "c_COMall[1]"
variable  comall_y equal "c_COMall[2]"
variable  comall_z equal "c_COMall[3]"

#-------------------------- Wave Propagation -------------------------
unfix        3temp
run          1000000
Setting up Verlet run ...
  Unit style  : metal
  Current step: 5000
  Time step   : 0.002
Step Lx Pxx Pyy Pzz Temp COM1x[1] COM1x[2] COM1x[3] COM2x[1] COM2x[2] COM2x[3] COM3x[1] COM3x[2] COM3x[3] COM4x[1] COM4x[2] COM4x[3] COM5x[1] COM5x[2] COM5x[3] COMall[1 COMall[2 COMall[3
5000    471.58876   -195.29268    -186.2081   -185.88739    303.76841    2.2847737  -0.83168368   -19.819054   -233.00135  -0.93136251   -19.794864    2.3079409   -0.8753288    -9.596642   -233.00864  -0.91034934   -9.7899238    198.35475   -0.9699822   -19.116555  -0.92057607  -0.90798535   -470.01491
Averages over the last 5001 of 10001 rows, steps 505000 to 1005000:
Lx Pxx Pyy Pzz Temp COM1x[1] COM1x[2] COM1x[3] COM2x[1] COM2x[2] COM2x[3] COM3x[1] COM3x[2] COM3x[3] COM4x[1] COM4x[2] COM4x[3] COM5x[1] COM5x[2] COM5x[3] COMall[1 COMall[2 COMall[3
471.589 -68.6291 -54.2728 -3.08585 304.178 6.48224 4.42692 -25.5127 -228.868 4.31996 -25.3441 6.51856 4.37073 -15.379 -228.857 4.34124 -15.3474 202.501 4.27002 -24.7031 3.2841 4.36004 -475.584
Loop time of 13216.3 on 512 procs for 1000000 steps with 804572 atoms
