fission-0072
fission-0072
fission-0072
fission-0072
fission-0072
fission-0072
fission-0072
fission-0072
fission-0072
fission-0072
fission-0072
fission-0072
fission-0072
fission-0072
fission-0072
fission-0072
fission-0072
fission-0072
fission-0072
fission-0072
fission-0072
fission-0072
fission-0072
fission-0072
fission-0072
fission-0072
fission-0072
fission-0072
fission-0072
fission-0072
fission-0072
fission-0072
fission-0057
fission-0057
fission-0057
fission-0057
fission-0057
fission-0057
fission-0057
fission-0057
fission-0057
fission-0057
fission-0057
fission-0057
fission-0057
fission-0057
fission-0057
fission-0057
fission-0057
fission-0057
fission-0057
fission-0057
fission-0057
fission-0057
fission-0057
fission-0057
fission-0057
fission-0057
fission-0057
fission-0057
fission-0057
fission-0057
fission-0057
fission-0057
fission-0084
fission-0084
fission-0084
fission-0084
fission-0084
fission-0084
fission-0084
fission-0084
fission-0084
fission-0084
fission-0084
fission-0084
fission-0084
fission-0084
fission-0084
fission-0084
fission-0084
fission-0084
fission-0084
fission-0084
fission-0084
fission-0084
fission-0084
fission-0084
fission-0084
fission-0084
fission-0084
fission-0084
fission-0084
fission-0084
fission-0084
fission-0084
fission-0062
fission-0062
fission-0062
fission-0062
fission-0062
fission-0062
fission-0062
fission-0062
fission-0062
fission-0062
fission-0062
fission-0062
fission-0062
fission-0062
fission-0062
fission-0062
fission-0062
fission-0062
fission-0062
fission-0062
fission-0062
fission-0062
fission-0062
fission-0062
fission-0062
fission-0062
fission-0062
fission-0062
fission-0062
fission-0062
fission-0062
fission-0062
fission-0063
fission-0063
fission-0063
fission-0063
fission-0063
fission-0063
fission-0063
fission-0063
fission-0063
fission-0063
fission-0063
fission-0063
fission-0063
fission-0063
fission-0063
fission-0063
fission-0063
fission-0063
fission-0063
fission-0063
fission-0063
fission-0063
fission-0063
fission-0063
fission-0063
fission-0063
fission-0063
fission-0063
fission-0063
fission-0063
fission-0063
fission-0063
fission-0064
fission-0064
fission-0064
fission-0064
fission-0064
fission-0064
fission-0064
fission-0064
fission-0064
fission-0064
fission-0064
fission-0064
fission-0064
fission-0064
fission-0064
fission-0064
fission-0064
fission-0064
fission-0064
fission-0064
fission-0064
fission-0064
fission-0064
fission-0064
fission-0064
fission-0064
fission-0064
fission-0064
fission-0064
fission-0064
fission-0064
fission-0064
fission-0067
fission-0067
fission-0067
fission-0067
fission-0067
fission-0067
fission-0067
fission-0067
fission-0067
fission-0067
fission-0067
fission-0067
fission-0067
fission-0067
fission-0067
fission-0067
fission-0067
fission-0067
fission-0067
fission-0067
fission-0067
fission-0067
fission-0067
fission-0067
fission-0067
fission-0067
fission-0067
fission-0067
fission-0067
fission-0067
fission-0067
fission-0067
fission-0082
fission-0082
fission-0082
fission-0082
fission-0082
fission-0082
fission-0082
fission-0082
fission-0082
fission-0082
fission-0082
fission-0082
fission-0082
fission-0082
fission-0082
fission-0082
fission-0082
fission-0082
fission-0082
fission-0082
fission-0082
fission-0082
fission-0082
fission-0082
fission-0082
fission-0082
fission-0082
fission-0082
fission-0082
fission-0082
fission-0082
fission-0082
fission-0079
fission-0079
fission-0079
fission-0079
fission-0079
fission-0079
fission-0079
fission-0079
fission-0079
fission-0079
fission-0079
fission-0079
fission-0079
fission-0079
fission-0079
fission-0079
fission-0079
fission-0079
fission-0079
fission-0079
fission-0079
fission-0079
fission-0079
fission-0079
fission-0079
fission-0079
fission-0079
fission-0079
fission-0079
fission-0079
fission-0079
fission-0079
fission-0059
fission-0059
fission-0059
fission-0059
fission-0059
fission-0059
fission-0059
fission-0059
fission-0059
fission-0059
fission-0059
fission-0059
fission-0059
fission-0059
fission-0059
fission-0059
fission-0059
fission-0059
fission-0059
fission-0059
fission-0059
fission-0059
fission-0059
fission-0059
fission-0059
fission-0059
fission-0059
fission-0059
fission-0059
fission-0059
fission-0059
fission-0059
fission-0060
fission-0060
fission-0060
fission-0060
fission-0060
fission-0060
fission-0060
fission-0060
fission-0060
fission-0060
fission-0060
fission-0060
fission-0060
fission-0060
fission-0060
fission-0060
fission-0060
fission-0060
fission-0060
fission-0060
fission-0060
fission-0060
fission-0060
fission-0060
fission-0060
fission-0060
fission-0060
fission-0060
fission-0060
fission-0060
fission-0060
fission-0060
fission-0073
fission-0073
fission-0073
fission-0073
fission-0073
fission-0073
fission-0073
fission-0073
fission-0073
fission-0073
fission-0073
fission-0073
fission-0073
fission-0073
fission-0073
fission-0073
fission-0073
fission-0073
fission-0073
fission-0073
fission-0073
fission-0073
fission-0073
fission-0073
fission-0073
fission-0073
fission-0073
fission-0073
fission-0073
fission-0073
fission-0073
fission-0073
fission-0078
fission-0078
fission-0078
fission-0078
fission-0078
fission-0078
fission-0078
fission-0078
fission-0078
fission-0078
fission-0078
fission-0078
fission-0078
fission-0078
fission-0078
fission-0078
fission-0078
fission-0078
fission-0078
fission-0078
fission-0078
fission-0078
fission-0078
fission-0078
fission-0078
fission-0078
fission-0078
fission-0078
fission-0078
fission-0078
fission-0078
fission-0078
fission-0080
fission-0080
fission-0080
fission-0080
fission-0080
fission-0080
fission-0080
fission-0080
fission-0080
fission-0080
fission-0080
fission-0080
fission-0080
fission-0080
fission-0080
fission-0080
fission-0080
fission-0080
fission-0080
fission-0080
fission-0080
fission-0080
fission-0080
fission-0080
fission-0080
fission-0080
fission-0080
fission-0080
fission-0080
fission-0080
fission-0080
fission-0080
fission-0076
fission-0076
fission-0076
fission-0076
fission-0076
fission-0076
fission-0076
fission-0076
fission-0076
fission-0076
fission-0076
fission-0076
fission-0076
fission-0076
fission-0076
fission-0076
fission-0076
fission-0076
fission-0076
fission-0076
fission-0076
fission-0076
fission-0076
fission-0076
fission-0076
fission-0076
fission-0076
fission-0076
fission-0076
fission-0076
fission-0076
fission-0076
fission-0081
fission-0081
fission-0081
fission-0081
fission-0081
fission-0081
fission-0081
fission-0081
fission-0081
fission-0081
fission-0081
fission-0081
fission-0081
fission-0081
fission-0081
fission-0081
fission-0081
fission-0081
fission-0081
fission-0081
fission-0081
fission-0081
fission-0081
fission-0081
fission-0081
fission-0081
fission-0081
fission-0081
fission-0081
fission-0081
fission-0081
fission-0081

The following PBS extra args (PBS_EXTRA_ARGS) will be used: -P ldrd
The following lammps extra args (LAMMPS_EXTRA_ARGS) will be used:
LAMMPS (16 Feb 2016)
#log		log.c
units           metal
dimension       3
boundary        p p p
atom_style      atomic
shell         mkdir  cfg
shell         mkdir  dump

# ----------------------- ATOM DEFINITION & Force Field -------------
# ----------------------- ATOM DEFINITION ----------------------------
lattice         fcc 4.024845358 #origin 0.0 0.0 0.0 orient x 1 -1 0 orient y 1 1 -2 orient z 1 1 1
Lattice spacing in x,y,z = 4.02485 4.02485 4.02485
variable        Lx equal 52
variable        Ly equal 2
variable        Lz equal 208
variable        boxLZ equal 218
region          SYSTEM block -52 52 -2 2 -208 0 units lattice
region          BOX block -52 52 -2 2 -218 5 units lattice
create_box      1 BOX
Created orthogonal box = (-209.292 -8.04969 -877.416) to (209.292 8.04969 20.1242)
create_atoms    1 region SYSTEM
Created 346944 atoms

delete_atoms     porosity BOX 0.002 19092    ##random seed <RAND1>
Deleted 725 atoms, new total = 346219

#---------------------------------------------------------------------------------
pair_style      eam/alloy
pair_coeff  	  * * Al_wkg_MSMSE_2009.set Al

#----------------------------------------------------------------------------------
velocity       all create 300.0 26820 mom yes rot yes dist gaussian         ##random seed <RAND2>

fix             1 all npt temp 300 300 0.1 iso 0.0 0.0 2
run      10000
  1 neighbor list requests
  update every 1 steps, delay 10 steps, check yes
Setting up Verlet run ...
  Unit style  : metal
  Current step: 0
  Time step   : 0.001
Step Temp E_pair E_mol TotEng Press Volume
0          300   -914759.28            0   -901333.62    1583.8522    6048473.6
Loop time of 62.6084 on 512 procs for 10000 steps with 346219 atoms

unfix 1

fix            2 all nvt temp 300.0 300.0 0.1

run      10000
Setting up Verlet run ...
  Unit style  : metal
  Current step: 10000
  Time step   : 0.001
Step Temp E_pair E_mol TotEng Press
10000     299.7029   -900750.85            0   -887338.49    43.848279
Loop time of 59.6608 on 512 procs for 10000 steps with 346219 atoms

reset_timestep 0
unfix    2
#---------------------- DEFINE Laser GERION and GROUP ----------------
region       R1  block -75  75  INF  INF  INF  5  units box
group        G1 region R1
123251 atoms in group G1
group        G2 subtract all G1
222968 atoms in group G2

#define     temperature/pressure calculation  group
variable    x1atom atom "x>=0  &&  x<4 &&  z>-40 && z<1"     ##NEW!!!!!!!!!!!!
variable    x2atom atom "x>=-209.292  &&  x<-205.292 &&  z>-40 && z<1"
variable    x3atom atom "x>=0  &&  x<4 &&  z>-20 && z<1"
variable    x4atom atom "x>=-209.292  &&  x<-205.292 &&  z>-20 && z<1"
variable    x5atom atom "x>=196  &&  x<200 &&  z>-40 && z<1"

group       x1atom variable x1atom
146 atoms in group x1atom
group       x2atom variable x2atom
160 atoms in group x2atom
group       x3atom variable x3atom
75 atoms in group x3atom
group       x4atom variable x4atom
80 atoms in group x4atom
group       x5atom variable x5atom
160 atoms in group x5atom

compute      COM1x x1atom com
compute      COM2x x2atom com
compute      COM3x x3atom com
compute      COM4x x4atom com
compute      COM5x x5atom com

compute      COMall all com

#Temperature profile
#variable      Tprofile atom 300*(1+(step/5000)*2.5*exp(z/40))
variable      Tprofile atom 300*(1+(step/5000)*2.5*exp(z/75))

# ------------------------- SETTINGS ---------------------------------
thermo          100
thermo_style    custom step lx pxx pyy pzz temp c_COM1x[1] c_COM1x[2] c_COM1x[3] c_COM2x[1] c_COM2x[2] c_COM2x[3] c_COM3x[1] c_COM3x[2] c_COM3x[3] c_COM4x[1] c_COM4x[2] c_COM4x[3]  c_COM5x[1] c_COM5x[2] c_COM5x[3] c_COMall[1] c_COMall[2] c_COMall[3]

timestep       0.002

compute dispall all displace/atom
# ---------------- Run Laser Material Interaction --------------------
#dump          1 all custom 1000 dump/z1dump.atom id type x y z c_dispall[1]  c_dispall[2]  c_dispall[3] c_dispall[4]
#dump          2 all cfg 100 cfg/*.cfg mass type xs ys zs
#dump_modify   2 element Al

#relax for 2 PS
#fix           1 all nvt temp 300.0 300.0 0.1
#run  1000
#unfix         1

fix           1  all nve
fix           3temp  G1  langevin  v_Tprofile  0  0.1  378411   #TEST ALL
run           5000
Setting up Verlet run ...
  Unit style  : metal
  Current step: 0
  Time step   : 0.002
Step Lx Pxx Pyy Pzz Temp COM1x[1] COM1x[2] COM1x[3] COM2x[1] COM2x[2] COM2x[3] COM3x[1] COM3x[2] COM3x[3] COM4x[1] COM4x[2] COM4x[3] COM5x[1] COM5x[2] COM5x[3] COMall[1 COMall[2 COMall[3
0    421.49957    40.210112    35.284938   -185.44948    299.85085    1.5045493    -1.216991   -19.650397   -207.62947  -0.98398749    -19.78472    1.3756162   -1.2313314   -9.7712437   -207.66031  -0.95175263   -9.6474695     197.6658   -1.0442411   -19.821326   -1.0144346   -1.0129948   -418.51617
Averages over the last 26 of 51 rows, steps 2500 to 5000:
Lx Pxx Pyy Pzz Temp COM1x[1] COM1x[2] COM1x[3] COM2x[1] COM2x[2] COM2x[3] COM3x[1] COM3x[2] COM3x[3] COM4x[1] COM4x[2] COM4x[3] COM5x[1] COM5x[2] COM5x[3] COMall[1 COMall[2 COMall[3
421.5 1086.57 1034.65 686.349 321.825 1.44706 -1.22187 -19.3126 -207.747 -1.07282 -19.8943 1.28898 -1.18412 -9.23049 -207.743 -1.07784 -9.72657 197.607 -1.06197 -19.8967 -1.02152 -0.997116 -418.545
Loop time of 30.9444 on 512 procs for 5000 steps with 346219 atoms

variable  com1_x equal "c_COM1x[1]"
variable  com1_y equal "c_COM1x[2]"
variable  com1_z equal "c_COM1x[3]"
variable  com2_x equal "c_COM2x[1]"
variable  com2_y equal "c_COM2x[2]"
variable  com2_z equal "c_COM2x[3]"
variable  com3_x equal "c_COM3x[1]"
variable  com3_y equal "c_COM3x[2]"
variable  com3_z equal "c_COM3x[3]"
variable  com4_x equal "c_COM4x[1]"
variable  com4_y equal "c_COM4x[2]"
variable  com4_z equal "c_COM4x[3]"
variable  com5_x equal "c_COM5x[1]"
variable  com5_y equal "c_COM5x[2]"
variable  com5_z equal "c_COM5x[3]"
variable  comall_x equal "c_COMall[1]"
variable  comall_y equal "c_COMall[2]"
variable  comall_z equal "c_COMall[3]"

#-------------------------- Wave Propagation -------------------------
unfix        3temp
run          1000000
Setting up Verlet run ...
  Unit style  : metal
  Current step: 5000
  Time step   : 0.002
Step Lx Pxx Pyy Pzz Temp COM1x[1] COM1x[2] COM1x[3] COM2x[1] COM2x[2] COM2x[3] COM3x[1] COM3x[2] COM3x[3] COM4x[1] COM4x[2] COM4x[3] COM5x[1] COM5x[2] COM5x[3] COMall[1 COMall[2 COMall[3
5000    421.49957    1405.3247    1309.9609    864.07193    329.78645    1.4417665   -1.0881172   -19.063409   -207.69507   -1.0657529   -19.892791    1.3623227  -0.98598182   -8.9018866   -207.72627   -1.1312576   -9.7454836    197.68241   -1.1220905   -19.828398   -1.0199389  -0.99577906   -418.55915
Averages over the last 5001 of 10001 rows, steps 505000 to 1005000:
Lx Pxx Pyy Pzz Temp COM1x[1] COM1x[2] COM1x[3] COM2x[1] COM2x[2] COM2x[3] COM3x[1] COM3x[2] COM3x[3] COM4x[1] COM4x[2] COM4x[3] COM5x[1] COM5x[2] COM5x[3] COMall[1 COMall[2 COMall[3
421.5 927.969 906.891 -6.81183 330.439 -13.6424 1.42832 -29.8315 -222.791 1.58009 -30.162 -13.7865 1.43151 -19.8982 -222.79 1.57999 -20.001 182.497 1.57992 -30.1591 -16.0999 1.58065 -429.419
Loop time of 5809.87 on 512 procs for 1000000 steps with 346219 atoms
