fission-0100
fission-0100
fission-0100
fission-0100
fission-0100
fission-0100
fission-0100
fission-0100
fission-0100
fission-0100
fission-0100
fission-0100
fission-0100
fission-0100
fission-0100
fission-0100
fission-0100
fission-0100
fission-0100
fission-0100
fission-0100
fission-0100
fission-0100
fission-0100
fission-0100
fission-0100
fission-0100
fission-0100
fission-0100
fission-0100
fission-0100
fission-0100
fission-0086
fission-0086
fission-0086
fission-0086
fission-0086
fission-0086
fission-0086
fission-0086
fission-0086
fission-0086
fission-0086
fission-0086
fission-0086
fission-0086
fission-0086
fission-0086
fission-0086
fission-0086
fission-0086
fission-0086
fission-0086
fission-0086
fission-0086
fission-0086
fission-0086
fission-0086
fission-0086
fission-0086
fission-0086
fission-0086
fission-0086
fission-0086
fission-0112
fission-0112
fission-0112
fission-0112
fission-0112
fission-0112
fission-0112
fission-0112
fission-0112
fission-0112
fission-0112
fission-0112
fission-0112
fission-0112
fission-0112
fission-0112
fission-0112
fission-0112
fission-0112
fission-0112
fission-0112
fission-0112
fission-0112
fission-0112
fission-0112
fission-0112
fission-0112
fission-0112
fission-0112
fission-0112
fission-0112
fission-0112
fission-0088
fission-0088
fission-0088
fission-0088
fission-0088
fission-0088
fission-0088
fission-0088
fission-0088
fission-0088
fission-0088
fission-0088
fission-0088
fission-0088
fission-0088
fission-0088
fission-0088
fission-0088
fission-0088
fission-0088
fission-0088
fission-0088
fission-0088
fission-0088
fission-0088
fission-0088
fission-0088
fission-0088
fission-0088
fission-0088
fission-0088
fission-0088
fission-0091
fission-0091
fission-0091
fission-0091
fission-0091
fission-0091
fission-0091
fission-0091
fission-0091
fission-0091
fission-0091
fission-0091
fission-0091
fission-0091
fission-0091
fission-0091
fission-0091
fission-0091
fission-0091
fission-0091
fission-0091
fission-0091
fission-0091
fission-0091
fission-0091
fission-0091
fission-0091
fission-0091
fission-0091
fission-0091
fission-0091
fission-0091
fission-0087
fission-0087
fission-0087
fission-0087
fission-0087
fission-0087
fission-0087
fission-0087
fission-0087
fission-0087
fission-0087
fission-0087
fission-0087
fission-0087
fission-0087
fission-0087
fission-0087
fission-0087
fission-0087
fission-0087
fission-0087
fission-0087
fission-0087
fission-0087
fission-0087
fission-0087
fission-0087
fission-0087
fission-0087
fission-0087
fission-0087
fission-0087
fission-0093
fission-0093
fission-0093
fission-0093
fission-0093
fission-0093
fission-0093
fission-0093
fission-0093
fission-0093
fission-0093
fission-0093
fission-0093
fission-0093
fission-0093
fission-0093
fission-0093
fission-0093
fission-0093
fission-0093
fission-0093
fission-0093
fission-0093
fission-0093
fission-0093
fission-0093
fission-0093
fission-0093
fission-0093
fission-0093
fission-0093
fission-0093
fission-0099
fission-0099
fission-0099
fission-0099
fission-0099
fission-0099
fission-0099
fission-0099
fission-0099
fission-0099
fission-0099
fission-0099
fission-0099
fission-0099
fission-0099
fission-0099
fission-0099
fission-0099
fission-0099
fission-0099
fission-0099
fission-0099
fission-0099
fission-0099
fission-0099
fission-0099
fission-0099
fission-0099
fission-0099
fission-0099
fission-0099
fission-0099
fission-0095
fission-0095
fission-0095
fission-0095
fission-0095
fission-0095
fission-0095
fission-0095
fission-0095
fission-0095
fission-0095
fission-0095
fission-0095
fission-0095
fission-0095
fission-0095
fission-0095
fission-0095
fission-0095
fission-0095
fission-0095
fission-0095
fission-0095
fission-0095
fission-0095
fission-0095
fission-0095
fission-0095
fission-0095
fission-0095
fission-0095
fission-0095
fission-0096
fission-0096
fission-0096
fission-0096
fission-0096
fission-0096
fission-0096
fission-0096
fission-0096
fission-0096
fission-0096
fission-0096
fission-0096
fission-0096
fission-0096
fission-0096
fission-0096
fission-0096
fission-0096
fission-0096
fission-0096
fission-0096
fission-0096
fission-0096
fission-0096
fission-0096
fission-0096
fission-0096
fission-0096
fission-0096
fission-0096
fission-0096
fission-0089
fission-0089
fission-0089
fission-0089
fission-0089
fission-0089
fission-0089
fission-0089
fission-0089
fission-0089
fission-0089
fission-0089
fission-0089
fission-0089
fission-0089
fission-0089
fission-0089
fission-0089
fission-0089
fission-0089
fission-0089
fission-0089
fission-0089
fission-0089
fission-0089
fission-0089
fission-0089
fission-0089
fission-0089
fission-0089
fission-0089
fission-0089
fission-0098
fission-0098
fission-0098
fission-0098
fission-0098
fission-0098
fission-0098
fission-0098
fission-0098
fission-0098
fission-0098
fission-0098
fission-0098
fission-0098
fission-0098
fission-0098
fission-0098
fission-0098
fission-0098
fission-0098
fission-0098
fission-0098
fission-0098
fission-0098
fission-0098
fission-0098
fission-0098
fission-0098
fission-0098
fission-0098
fission-0098
fission-0098
fission-0092
fission-0092
fission-0092
fission-0092
fission-0092
fission-0092
fission-0092
fission-0092
fission-0092
fission-0092
fission-0092
fission-0092
fission-0092
fission-0092
fission-0092
fission-0092
fission-0092
fission-0092
fission-0092
fission-0092
fission-0092
fission-0092
fission-0092
fission-0092
fission-0092
fission-0092
fission-0092
fission-0092
fission-0092
fission-0092
fission-0092
fission-0092
fission-0101
fission-0101
fission-0101
fission-0101
fission-0101
fission-0101
fission-0101
fission-0101
fission-0101
fission-0101
fission-0101
fission-0101
fission-0101
fission-0101
fission-0101
fission-0101
fission-0101
fission-0101
fission-0101
fission-0101
fission-0101
fission-0101
fission-0101
fission-0101
fission-0101
fission-0101
fission-0101
fission-0101
fission-0101
fission-0101
fission-0101
fission-0101
fission-0102
fission-0102
fission-0102
fission-0102
fission-0102
fission-0102
fission-0102
fission-0102
fission-0102
fission-0102
fission-0102
fission-0102
fission-0102
fission-0102
fission-0102
fission-0102
fission-0102
fission-0102
fission-0102
fission-0102
fission-0102
fission-0102
fission-0102
fission-0102
fission-0102
fission-0102
fission-0102
fission-0102
fission-0102
fission-0102
fission-0102
fission-0102
fission-0104
fission-0104
fission-0104
fission-0104
fission-0104
fission-0104
fission-0104
fission-0104
fission-0104
fission-0104
fission-0104
fission-0104
fission-0104
fission-0104
fission-0104
fission-0104
fission-0104
fission-0104
fission-0104
fission-0104
fission-0104
fission-0104
fission-0104
fission-0104
fission-0104
fission-0104
fission-0104
fission-0104
fission-0104
fission-0104
fission-0104
fission-0104

The following PBS extra args (PBS_EXTRA_ARGS) will be used: -P ldrd
The following lammps extra args (LAMMPS_EXTRA_ARGS) will be used:
LAMMPS (16 Feb 2016)
#log		log.c
units           metal
dimension       3
boundary        p p p
atom_style      atomic
shell         mkdir  cfg
shell         mkdir  dump

# ----------------------- ATOM DEFINITION & Force Field -------------
# ----------------------- ATOM DEFINITION ----------------------------
lattice         fcc 4.024845358 #origin 0.0 0.0 0.0 orient x 1 -1 0 orient y 1 1 -2 orient z 1 1 1
Lattice spacing in x,y,z = 4.02485 4.02485 4.02485
variable        Lx equal 52
variable        Ly equal 2
variable        Lz equal 208
variable        boxLZ equal 218
region          SYSTEM block -52 52 -2 2 -208 0 units lattice
region          BOX block -52 52 -2 2 -218 5 units lattice
create_box      1 BOX
Created orthogonal box = (-209.292 -8.04969 -877.416) to (209.292 8.04969 20.1242)
create_atoms    1 region SYSTEM
Created 346944 atoms

delete_atoms     porosity BOX 0.002 3871    ##random seed <RAND1>
Deleted 737 atoms, new total = 346207

#---------------------------------------------------------------------------------
pair_style      eam/alloy
pair_coeff  	  * * Al_wkg_MSMSE_2009.set Al

#----------------------------------------------------------------------------------
velocity       all create 300.0 12915 mom yes rot yes dist gaussian         ##random seed <RAND2>

fix             1 all npt temp 300 300 0.1 iso 0.0 0.0 2
run      10000
  1 neighbor list requests
  update every 1 steps, delay 10 steps, check yes
Setting up Verlet run ...
  Unit style  : metal
  Current step: 0
  Time step   : 0.001
Step Temp E_pair E_mol TotEng Press Volume
0          300   -914716.37            0   -901291.18    1569.4934    6048473.6
Loop time of 61.6449 on 512 procs for 10000 steps with 346207 atoms

unfix 1

fix            2 all nvt temp 300.0 300.0 0.1

run      10000
Setting up Verlet run ...
  Unit style  : metal
  Current step: 10000
  Time step   : 0.001
Step Temp E_pair E_mol TotEng Press
10000    299.41448   -900710.77            0   -887311.78    34.362757
Loop time of 59.59 on 512 procs for 10000 steps with 346207 atoms

reset_timestep 0
unfix    2
#---------------------- DEFINE Laser GERION and GROUP ----------------
region       R1  block -75  75  INF  INF  INF  5  units box
group        G1 region R1
123499 atoms in group G1
group        G2 subtract all G1
222708 atoms in group G2

#define     temperature/pressure calculation  group
variable    x1atom atom "x>=0  &&  x<4 &&  z>-40 && z<1"     ##NEW!!!!!!!!!!!!
variable    x2atom atom "x>=-209.292  &&  x<-205.292 &&  z>-40 && z<1"
variable    x3atom atom "x>=0  &&  x<4 &&  z>-20 && z<1"
variable    x4atom atom "x>=-209.292  &&  x<-205.292 &&  z>-20 && z<1"
variable    x5atom atom "x>=196  &&  x<200 &&  z>-40 && z<1"

group       x1atom variable x1atom
141 atoms in group x1atom
group       x2atom variable x2atom
159 atoms in group x2atom
group       x3atom variable x3atom
70 atoms in group x3atom
group       x4atom variable x4atom
80 atoms in group x4atom
group       x5atom variable x5atom
160 atoms in group x5atom

compute      COM1x x1atom com
compute      COM2x x2atom com
compute      COM3x x3atom com
compute      COM4x x4atom com
compute      COM5x x5atom com

compute      COMall all com

#Temperature profile
#variable      Tprofile atom 300*(1+(step/5000)*2.5*exp(z/40))
variable      Tprofile atom 300*(1+(step/5000)*2.5*exp(z/75))

# ------------------------- SETTINGS ---------------------------------
thermo          100
thermo_style    custom step lx pxx pyy pzz temp c_COM1x[1] c_COM1x[2] c_COM1x[3] c_COM2x[1] c_COM2x[2] c_COM2x[3] c_COM3x[1] c_COM3x[2] c_COM3x[3] c_COM4x[1] c_COM4x[2] c_COM4x[3]  c_COM5x[1] c_COM5x[2] c_COM5x[3] c_COMall[1] c_COMall[2] c_COMall[3]

timestep       0.002

compute dispall all displace/atom
# ---------------- Run Laser Material Interaction --------------------
#dump          1 all custom 1000 dump/z1dump.atom id type x y z c_dispall[1]  c_dispall[2]  c_dispall[3] c_dispall[4]
#dump          2 all cfg 100 cfg/*.cfg mass type xs ys zs
#dump_modify   2 element Al

#relax for 2 PS
#fix           1 all nvt temp 300.0 300.0 0.1
#run  1000
#unfix         1

fix           1  all nve
fix           3temp  G1  langevin  v_Tprofile  0  0.1  378411   #TEST ALL
run           5000
Setting up Verlet run ...
  Unit style  : metal
  Current step: 0
  Time step   : 0.002
Step Lx Pxx Pyy Pzz Temp COM1x[1] COM1x[2] COM1x[3] COM2x[1] COM2x[2] COM2x[3] COM3x[1] COM3x[2] COM3x[3] COM4x[1] COM4x[2] COM4x[3] COM5x[1] COM5x[2] COM5x[3] COMall[1 COMall[2 COMall[3
0    421.44582    208.76699    195.04963   -98.852798    300.29029    1.9816341   -1.2774279   -20.195491   -207.86717  -0.89130466   -19.925144    2.0256964   -1.2750079   -9.8724586   -207.81695  -0.86335833   -9.8647267    197.40982  -0.95667469   -19.877275   -1.0108172   -1.0129592   -418.51971
Averages over the last 26 of 51 rows, steps 2500 to 5000:
Lx Pxx Pyy Pzz Temp COM1x[1] COM1x[2] COM1x[3] COM2x[1] COM2x[2] COM2x[3] COM3x[1] COM3x[2] COM3x[3] COM4x[1] COM4x[2] COM4x[3] COM5x[1] COM5x[2] COM5x[3] COMall[1 COMall[2 COMall[3
421.446 1197.32 1147.46 664.06 322.282 1.96434 -1.20774 -19.7598 -207.814 -1.03448 -19.7532 1.98855 -1.16002 -9.22793 -207.806 -1.02297 -9.6305 197.508 -1.02093 -19.7861 -1.00936 -0.993447 -418.528
Loop time of 32.0629 on 512 procs for 5000 steps with 346207 atoms

variable  com1_x equal "c_COM1x[1]"
variable  com1_y equal "c_COM1x[2]"
variable  com1_z equal "c_COM1x[3]"
variable  com2_x equal "c_COM2x[1]"
variable  com2_y equal "c_COM2x[2]"
variable  com2_z equal "c_COM2x[3]"
variable  com3_x equal "c_COM3x[1]"
variable  com3_y equal "c_COM3x[2]"
variable  com3_z equal "c_COM3x[3]"
variable  com4_x equal "c_COM4x[1]"
variable  com4_y equal "c_COM4x[2]"
variable  com4_z equal "c_COM4x[3]"
variable  com5_x equal "c_COM5x[1]"
variable  com5_y equal "c_COM5x[2]"
variable  com5_z equal "c_COM5x[3]"
variable  comall_x equal "c_COMall[1]"
variable  comall_y equal "c_COMall[2]"
variable  comall_z equal "c_COMall[3]"

#-------------------------- Wave Propagation -------------------------
unfix        3temp
run          1000000
Setting up Verlet run ...
  Unit style  : metal
  Current step: 5000
  Time step   : 0.002
Step Lx Pxx Pyy Pzz Temp COM1x[1] COM1x[2] COM1x[3] COM2x[1] COM2x[2] COM2x[3] COM3x[1] COM3x[2] COM3x[3] COM4x[1] COM4x[2] COM4x[3] COM5x[1] COM5x[2] COM5x[3] COMall[1 COMall[2 COMall[3
5000    421.44582    1501.6224    1470.7839    838.11866    329.81986    2.0440631   -1.0649801   -19.614279   -207.81125   -1.0450447   -19.578253    2.0490177  -0.98774612   -9.0384869   -207.82861   -1.0467022   -9.3860951    197.55844    -1.131353   -19.583892   -1.0142495  -0.99128708   -418.53703
Averages over the last 5001 of 10001 rows, steps 505000 to 1005000:
Lx Pxx Pyy Pzz Temp COM1x[1] COM1x[2] COM1x[3] COM2x[1] COM2x[2] COM2x[3] COM3x[1] COM3x[2] COM3x[3] COM4x[1] COM4x[2] COM4x[3] COM5x[1] COM5x[2] COM5x[3] COMall[1 COMall[2 COMall[3
421.446 1056.2 1034.27 -6.90023 330.984 -10.0477 -2.3136 -37.5112 -219.777 -2.03858 -37.2225 -10.0507 -2.26444 -27.141 -219.769 -2.03222 -27.1026 185.477 -2.03216 -37.2555 -13.0894 -2.03295 -436.559
Loop time of 5803.89 on 512 procs for 1000000 steps with 346207 atoms
