fission-0345
fission-0345
fission-0345
fission-0345
fission-0345
fission-0345
fission-0345
fission-0345
fission-0345
fission-0345
fission-0345
fission-0345
fission-0345
fission-0345
fission-0345
fission-0345
fission-0345
fission-0345
fission-0345
fission-0345
fission-0345
fission-0345
fission-0345
fission-0345
fission-0345
fission-0345
fission-0345
fission-0345
fission-0345
fission-0345
fission-0345
fission-0345
fission-0349
fission-0349
fission-0349
fission-0349
fission-0349
fission-0349
fission-0349
fission-0349
fission-0349
fission-0349
fission-0349
fission-0349
fission-0349
fission-0349
fission-0349
fission-0349
fission-0349
fission-0349
fission-0349
fission-0349
fission-0349
fission-0349
fission-0349
fission-0349
fission-0349
fission-0349
fission-0349
fission-0349
fission-0349
fission-0349
fission-0349
fission-0349
fission-0352
fission-0352
fission-0352
fission-0352
fission-0352
fission-0352
fission-0352
fission-0352
fission-0352
fission-0352
fission-0352
fission-0352
fission-0352
fission-0352
fission-0352
fission-0352
fission-0352
fission-0352
fission-0352
fission-0352
fission-0352
fission-0352
fission-0352
fission-0352
fission-0352
fission-0352
fission-0352
fission-0352
fission-0352
fission-0352
fission-0352
fission-0352
fission-0353
fission-0353
fission-0353
fission-0353
fission-0353
fission-0353
fission-0353
fission-0353
fission-0353
fission-0353
fission-0353
fission-0353
fission-0353
fission-0353
fission-0353
fission-0353
fission-0353
fission-0353
fission-0353
fission-0353
fission-0353
fission-0353
fission-0353
fission-0353
fission-0353
fission-0353
fission-0353
fission-0353
fission-0353
fission-0353
fission-0353
fission-0353
fission-0354
fission-0354
fission-0354
fission-0354
fission-0354
fission-0354
fission-0354
fission-0354
fission-0354
fission-0354
fission-0354
fission-0354
fission-0354
fission-0354
fission-0354
fission-0354
fission-0354
fission-0354
fission-0354
fission-0354
fission-0354
fission-0354
fission-0354
fission-0354
fission-0354
fission-0354
fission-0354
fission-0354
fission-0354
fission-0354
fission-0354
fission-0354
fission-0359
fission-0359
fission-0359
fission-0359
fission-0359
fission-0359
fission-0359
fission-0359
fission-0359
fission-0359
fission-0359
fission-0359
fission-0359
fission-0359
fission-0359
fission-0359
fission-0359
fission-0359
fission-0359
fission-0359
fission-0359
fission-0359
fission-0359
fission-0359
fission-0359
fission-0359
fission-0359
fission-0359
fission-0359
fission-0359
fission-0359
fission-0359
fission-0336
fission-0336
fission-0336
fission-0336
fission-0336
fission-0336
fission-0336
fission-0336
fission-0336
fission-0336
fission-0336
fission-0336
fission-0336
fission-0336
fission-0336
fission-0336
fission-0336
fission-0336
fission-0336
fission-0336
fission-0336
fission-0336
fission-0336
fission-0336
fission-0336
fission-0336
fission-0336
fission-0336
fission-0336
fission-0336
fission-0336
fission-0336
fission-0337
fission-0337
fission-0337
fission-0337
fission-0337
fission-0337
fission-0337
fission-0337
fission-0337
fission-0337
fission-0337
fission-0337
fission-0337
fission-0337
fission-0337
fission-0337
fission-0337
fission-0337
fission-0337
fission-0337
fission-0337
fission-0337
fission-0337
fission-0337
fission-0337
fission-0337
fission-0337
fission-0337
fission-0337
fission-0337
fission-0337
fission-0337
fission-0362
fission-0362
fission-0362
fission-0362
fission-0362
fission-0362
fission-0362
fission-0362
fission-0362
fission-0362
fission-0362
fission-0362
fission-0362
fission-0362
fission-0362
fission-0362
fission-0362
fission-0362
fission-0362
fission-0362
fission-0362
fission-0362
fission-0362
fission-0362
fission-0362
fission-0362
fission-0362
fission-0362
fission-0362
fission-0362
fission-0362
fission-0362
fission-0338
fission-0338
fission-0338
fission-0338
fission-0338
fission-0338
fission-0338
fission-0338
fission-0338
fission-0338
fission-0338
fission-0338
fission-0338
fission-0338
fission-0338
fission-0338
fission-0338
fission-0338
fission-0338
fission-0338
fission-0338
fission-0338
fission-0338
fission-0338
fission-0338
fission-0338
fission-0338
fission-0338
fission-0338
fission-0338
fission-0338
fission-0338
fission-0340
fission-0340
fission-0340
fission-0340
fission-0340
fission-0340
fission-0340
fission-0340
fission-0340
fission-0340
fission-0340
fission-0340
fission-0340
fission-0340
fission-0340
fission-0340
fission-0340
fission-0340
fission-0340
fission-0340
fission-0340
fission-0340
fission-0340
fission-0340
fission-0340
fission-0340
fission-0340
fission-0340
fission-0340
fission-0340
fission-0340
fission-0340
fission-0363
fission-0363
fission-0363
fission-0363
fission-0363
fission-0363
fission-0363
fission-0363
fission-0363
fission-0363
fission-0363
fission-0363
fission-0363
fission-0363
fission-0363
fission-0363
fission-0363
fission-0363
fission-0363
fission-0363
fission-0363
fission-0363
fission-0363
fission-0363
fission-0363
fission-0363
fission-0363
fission-0363
fission-0363
fission-0363
fission-0363
fission-0363
fission-0342
fission-0342
fission-0342
fission-0342
fission-0342
fission-0342
fission-0342
fission-0342
fission-0342
fission-0342
fission-0342
fission-0342
fission-0342
fission-0342
fission-0342
fission-0342
fission-0342
fission-0342
fission-0342
fission-0342
fission-0342
fission-0342
fission-0342
fission-0342
fission-0342
fission-0342
fission-0342
fission-0342
fission-0342
fission-0342
fission-0342
fission-0342
fission-0343
fission-0343
fission-0343
fission-0343
fission-0343
fission-0343
fission-0343
fission-0343
fission-0343
fission-0343
fission-0343
fission-0343
fission-0343
fission-0343
fission-0343
fission-0343
fission-0343
fission-0343
fission-0343
fission-0343
fission-0343
fission-0343
fission-0343
fission-0343
fission-0343
fission-0343
fission-0343
fission-0343
fission-0343
fission-0343
fission-0343
fission-0343
fission-0344
fission-0344
fission-0344
fission-0344
fission-0344
fission-0344
fission-0344
fission-0344
fission-0344
fission-0344
fission-0344
fission-0344
fission-0344
fission-0344
fission-0344
fission-0344
fission-0344
fission-0344
fission-0344
fission-0344
fission-0344
fission-0344
fission-0344
fission-0344
fission-0344
fission-0344
fission-0344
fission-0344
fission-0344
fission-0344
fission-0344
fission-0344
fission-0348
fission-0348
fission-0348
fission-0348
fission-0348
fission-0348
fission-0348
fission-0348
fission-0348
fission-0348
fission-0348
fission-0348
fission-0348
fission-0348
fission-0348
fission-0348
fission-0348
fission-0348
fission-0348
fission-0348
fission-0348
fission-0348
fission-0348
fission-0348
fission-0348
fission-0348
fission-0348
fission-0348
fission-0348
fission-0348
fission-0348
fission-0348

The following PBS extra args (PBS_EXTRA_ARGS) will be used: -P ldrd
The following lammps extra args (LAMMPS_EXTRA_ARGS) will be used:
LAMMPS (16 Feb 2016)
#log		log.c
units           metal
dimension       3
boundary        p p p
atom_style      atomic
shell         mkdir  cfg
shell         mkdir  dump

# ----------------------- ATOM DEFINITION & Force Field -------------
# ----------------------- ATOM DEFINITION ----------------------------
lattice         fcc 4.024845358 #origin 0.0 0.0 0.0 orient x 1 -1 0 orient y 1 1 -2 orient z 1 1 1
Lattice spacing in x,y,z = 4.02485 4.02485 4.02485
variable        Lx equal 52
variable        Ly equal 2
variable        Lz equal 208
variable        boxLZ equal 218
region          SYSTEM block -52 52 -2 2 -208 0 units lattice
region          BOX block -52 52 -2 2 -218 5 units lattice
create_box      1 BOX
Created orthogonal box = (-209.292 -8.04969 -877.416) to (209.292 8.04969 20.1242)
create_atoms    1 region SYSTEM
Created 346944 atoms

delete_atoms     porosity BOX 0.002 27735    ##random seed <RAND1>
Deleted 717 atoms, new total = 346227

#---------------------------------------------------------------------------------
pair_style      eam/alloy
pair_coeff  	  * * Al_wkg_MSMSE_2009.set Al

#----------------------------------------------------------------------------------
velocity       all create 300.0 3227 mom yes rot yes dist gaussian         ##random seed <RAND2>

fix             1 all npt temp 300 300 0.1 iso 0.0 0.0 2
run      10000
  1 neighbor list requests
  update every 1 steps, delay 10 steps, check yes
Setting up Verlet run ...
  Unit style  : metal
  Current step: 0
  Time step   : 0.001
Step Temp E_pair E_mol TotEng Press Volume
0          300   -914783.69            0   -901357.72    1585.4976    6048473.6
Loop time of 65.1363 on 512 procs for 10000 steps with 346227 atoms

unfix 1

fix            2 all nvt temp 300.0 300.0 0.1

run      10000
Setting up Verlet run ...
  Unit style  : metal
  Current step: 10000
  Time step   : 0.001
Step Temp E_pair E_mol TotEng Press
10000    299.54998   -900812.16            0   -887406.34    13.464125
Loop time of 61.1654 on 512 procs for 10000 steps with 346227 atoms

reset_timestep 0
unfix    2
#---------------------- DEFINE Laser GERION and GROUP ----------------
region       R1  block -75  75  INF  INF  INF  5  units box
group        G1 region R1
123382 atoms in group G1
group        G2 subtract all G1
222845 atoms in group G2

#define     temperature/pressure calculation  group
variable    x1atom atom "x>=0  &&  x<4 &&  z>-40 && z<1"     ##NEW!!!!!!!!!!!!
variable    x2atom atom "x>=-209.292  &&  x<-205.292 &&  z>-40 && z<1"
variable    x3atom atom "x>=0  &&  x<4 &&  z>-20 && z<1"
variable    x4atom atom "x>=-209.292  &&  x<-205.292 &&  z>-20 && z<1"
variable    x5atom atom "x>=196  &&  x<200 &&  z>-40 && z<1"

group       x1atom variable x1atom
144 atoms in group x1atom
group       x2atom variable x2atom
159 atoms in group x2atom
group       x3atom variable x3atom
71 atoms in group x3atom
group       x4atom variable x4atom
80 atoms in group x4atom
group       x5atom variable x5atom
159 atoms in group x5atom

compute      COM1x x1atom com
compute      COM2x x2atom com
compute      COM3x x3atom com
compute      COM4x x4atom com
compute      COM5x x5atom com

compute      COMall all com

#Temperature profile
#variable      Tprofile atom 300*(1+(step/5000)*2.5*exp(z/40))
variable      Tprofile atom 300*(1+(step/5000)*2.5*exp(z/75))

# ------------------------- SETTINGS ---------------------------------
thermo          100
thermo_style    custom step lx pxx pyy pzz temp c_COM1x[1] c_COM1x[2] c_COM1x[3] c_COM2x[1] c_COM2x[2] c_COM2x[3] c_COM3x[1] c_COM3x[2] c_COM3x[3] c_COM4x[1] c_COM4x[2] c_COM4x[3]  c_COM5x[1] c_COM5x[2] c_COM5x[3] c_COMall[1] c_COMall[2] c_COMall[3]

timestep       0.002

compute dispall all displace/atom
# ---------------- Run Laser Material Interaction --------------------
#dump          1 all custom 1000 dump/z1dump.atom id type x y z c_dispall[1]  c_dispall[2]  c_dispall[3] c_dispall[4]
#dump          2 all cfg 100 cfg/*.cfg mass type xs ys zs
#dump_modify   2 element Al

#relax for 2 PS
#fix           1 all nvt temp 300.0 300.0 0.1
#run  1000
#unfix         1

fix           1  all nve
fix           3temp  G1  langevin  v_Tprofile  0  0.1  378411   #TEST ALL
run           5000
Setting up Verlet run ...
  Unit style  : metal
  Current step: 0
  Time step   : 0.002
Step Lx Pxx Pyy Pzz Temp COM1x[1] COM1x[2] COM1x[3] COM2x[1] COM2x[2] COM2x[3] COM3x[1] COM3x[2] COM3x[3] COM4x[1] COM4x[2] COM4x[3] COM5x[1] COM5x[2] COM5x[3] COMall[1 COMall[2 COMall[3
0    421.41725    208.47375    229.32537   -215.10763     299.8474    1.6307958   -1.0455549   -20.199691   -207.60068   -1.1341086   -19.674411    1.5631818  -0.94342944   -10.111393   -207.62372   -1.1268556   -9.5952967    197.62263   -1.1781141   -19.639844   -1.0052715   -1.0129491   -418.54042
Averages over the last 26 of 51 rows, steps 2500 to 5000:
Lx Pxx Pyy Pzz Temp COM1x[1] COM1x[2] COM1x[3] COM2x[1] COM2x[2] COM2x[3] COM3x[1] COM3x[2] COM3x[3] COM4x[1] COM4x[2] COM4x[3] COM5x[1] COM5x[2] COM5x[3] COMall[1 COMall[2 COMall[3
421.417 1368.88 1323.58 846.838 322.079 1.59442 -1.07508 -19.9371 -207.663 -0.976863 -19.8425 1.55281 -0.952846 -9.73132 -207.672 -1.01529 -9.7096 197.624 -1.04645 -19.8215 -1.01334 -0.999939 -418.552
Loop time of 30.9576 on 512 procs for 5000 steps with 346227 atoms

variable  com1_x equal "c_COM1x[1]"
variable  com1_y equal "c_COM1x[2]"
variable  com1_z equal "c_COM1x[3]"
variable  com2_x equal "c_COM2x[1]"
variable  com2_y equal "c_COM2x[2]"
variable  com2_z equal "c_COM2x[3]"
variable  com3_x equal "c_COM3x[1]"
variable  com3_y equal "c_COM3x[2]"
variable  com3_z equal "c_COM3x[3]"
variable  com4_x equal "c_COM4x[1]"
variable  com4_y equal "c_COM4x[2]"
variable  com4_z equal "c_COM4x[3]"
variable  com5_x equal "c_COM5x[1]"
variable  com5_y equal "c_COM5x[2]"
variable  com5_z equal "c_COM5x[3]"
variable  comall_x equal "c_COMall[1]"
variable  comall_y equal "c_COMall[2]"
variable  comall_z equal "c_COMall[3]"

#-------------------------- Wave Propagation -------------------------
unfix        3temp
run          1000000
Setting up Verlet run ...
  Unit style  : metal
  Current step: 5000
  Time step   : 0.002
Step Lx Pxx Pyy Pzz Temp COM1x[1] COM1x[2] COM1x[3] COM2x[1] COM2x[2] COM2x[3] COM3x[1] COM3x[2] COM3x[3] COM4x[1] COM4x[2] COM4x[3] COM5x[1] COM5x[2] COM5x[3] COMall[1 COMall[2 COMall[3
5000    421.41725    1663.2949    1623.4721    965.58555    330.52935    1.6065159  -0.90893024   -19.674132   -207.64037  -0.92708531   -19.657473    1.6094489  -0.76356582   -9.3528155   -207.63781  -0.99211106   -9.5239194    197.66738   -1.0789949   -19.699149    -1.004104   -0.9989205   -418.56659
Averages over the last 5001 of 10001 rows, steps 505000 to 1005000:
Lx Pxx Pyy Pzz Temp COM1x[1] COM1x[2] COM1x[3] COM2x[1] COM2x[2] COM2x[3] COM3x[1] COM3x[2] COM3x[3] COM4x[1] COM4x[2] COM4x[3] COM5x[1] COM5x[2] COM5x[3] COMall[1 COMall[2 COMall[3
421.417 1133 1110.63 -7.56055 331.025 -10.7232 -6.8481 -41.6448 -219.989 -6.78836 -41.3233 -10.776 -6.77729 -31.5695 -219.991 -6.82022 -31.1961 185.212 -6.86515 -41.2836 -13.3366 -6.82009 -440.704
Loop time of 5975.28 on 512 procs for 1000000 steps with 346227 atoms
