fission-0090
fission-0090
fission-0090
fission-0090
fission-0090
fission-0090
fission-0090
fission-0090
fission-0090
fission-0090
fission-0090
fission-0090
fission-0090
fission-0090
fission-0090
fission-0090
fission-0090
fission-0090
fission-0090
fission-0090
fission-0090
fission-0090
fission-0090
fission-0090
fission-0090
fission-0090
fission-0090
fission-0090
fission-0090
fission-0090
fission-0090
fission-0090
fission-0280
fission-0280
fission-0280
fission-0280
fission-0280
fission-0280
fission-0280
fission-0280
fission-0280
fission-0280
fission-0280
fission-0280
fission-0280
fission-0280
fission-0280
fission-0280
fission-0280
fission-0280
fission-0280
fission-0280
fission-0280
fission-0280
fission-0280
fission-0280
fission-0280
fission-0280
fission-0280
fission-0280
fission-0280
fission-0280
fission-0280
fission-0280
fission-0075
fission-0075
fission-0075
fission-0075
fission-0075
fission-0075
fission-0075
fission-0075
fission-0075
fission-0075
fission-0075
fission-0075
fission-0075
fission-0075
fission-0075
fission-0075
fission-0075
fission-0075
fission-0075
fission-0075
fission-0075
fission-0075
fission-0075
fission-0075
fission-0075
fission-0075
fission-0075
fission-0075
fission-0075
fission-0075
fission-0075
fission-0075
fission-0150
fission-0150
fission-0150
fission-0150
fission-0150
fission-0150
fission-0150
fission-0150
fission-0150
fission-0150
fission-0150
fission-0150
fission-0150
fission-0150
fission-0150
fission-0150
fission-0150
fission-0150
fission-0150
fission-0150
fission-0150
fission-0150
fission-0150
fission-0150
fission-0150
fission-0150
fission-0150
fission-0150
fission-0150
fission-0150
fission-0150
fission-0150
fission-0202
fission-0202
fission-0202
fission-0202
fission-0202
fission-0202
fission-0202
fission-0202
fission-0202
fission-0202
fission-0202
fission-0202
fission-0202
fission-0202
fission-0202
fission-0202
fission-0202
fission-0202
fission-0202
fission-0202
fission-0202
fission-0202
fission-0202
fission-0202
fission-0202
fission-0202
fission-0202
fission-0202
fission-0202
fission-0202
fission-0202
fission-0202
fission-0029
fission-0029
fission-0029
fission-0029
fission-0029
fission-0029
fission-0029
fission-0029
fission-0029
fission-0029
fission-0029
fission-0029
fission-0029
fission-0029
fission-0029
fission-0029
fission-0029
fission-0029
fission-0029
fission-0029
fission-0029
fission-0029
fission-0029
fission-0029
fission-0029
fission-0029
fission-0029
fission-0029
fission-0029
fission-0029
fission-0029
fission-0029
fission-0051
fission-0051
fission-0051
fission-0051
fission-0051
fission-0051
fission-0051
fission-0051
fission-0051
fission-0051
fission-0051
fission-0051
fission-0051
fission-0051
fission-0051
fission-0051
fission-0051
fission-0051
fission-0051
fission-0051
fission-0051
fission-0051
fission-0051
fission-0051
fission-0051
fission-0051
fission-0051
fission-0051
fission-0051
fission-0051
fission-0051
fission-0051
fission-0177
fission-0177
fission-0177
fission-0177
fission-0177
fission-0177
fission-0177
fission-0177
fission-0177
fission-0177
fission-0177
fission-0177
fission-0177
fission-0177
fission-0177
fission-0177
fission-0177
fission-0177
fission-0177
fission-0177
fission-0177
fission-0177
fission-0177
fission-0177
fission-0177
fission-0177
fission-0177
fission-0177
fission-0177
fission-0177
fission-0177
fission-0177
fission-0292
fission-0292
fission-0292
fission-0292
fission-0292
fission-0292
fission-0292
fission-0292
fission-0292
fission-0292
fission-0292
fission-0292
fission-0292
fission-0292
fission-0292
fission-0292
fission-0292
fission-0292
fission-0292
fission-0292
fission-0292
fission-0292
fission-0292
fission-0292
fission-0292
fission-0292
fission-0292
fission-0292
fission-0292
fission-0292
fission-0292
fission-0292
fission-0184
fission-0184
fission-0184
fission-0184
fission-0184
fission-0184
fission-0184
fission-0184
fission-0184
fission-0184
fission-0184
fission-0184
fission-0184
fission-0184
fission-0184
fission-0184
fission-0184
fission-0184
fission-0184
fission-0184
fission-0184
fission-0184
fission-0184
fission-0184
fission-0184
fission-0184
fission-0184
fission-0184
fission-0184
fission-0184
fission-0184
fission-0184
fission-0281
fission-0281
fission-0281
fission-0281
fission-0281
fission-0281
fission-0281
fission-0281
fission-0281
fission-0281
fission-0281
fission-0281
fission-0281
fission-0281
fission-0281
fission-0281
fission-0281
fission-0281
fission-0281
fission-0281
fission-0281
fission-0281
fission-0281
fission-0281
fission-0281
fission-0281
fission-0281
fission-0281
fission-0281
fission-0281
fission-0281
fission-0281
fission-0243
fission-0243
fission-0243
fission-0243
fission-0243
fission-0243
fission-0243
fission-0243
fission-0243
fission-0243
fission-0243
fission-0243
fission-0243
fission-0243
fission-0243
fission-0243
fission-0243
fission-0243
fission-0243
fission-0243
fission-0243
fission-0243
fission-0243
fission-0243
fission-0243
fission-0243
fission-0243
fission-0243
fission-0243
fission-0243
fission-0243
fission-0243
fission-0259
fission-0259
fission-0259
fission-0259
fission-0259
fission-0259
fission-0259
fission-0259
fission-0259
fission-0259
fission-0259
fission-0259
fission-0259
fission-0259
fission-0259
fission-0259
fission-0259
fission-0259
fission-0259
fission-0259
fission-0259
fission-0259
fission-0259
fission-0259
fission-0259
fission-0259
fission-0259
fission-0259
fission-0259
fission-0259
fission-0259
fission-0259
fission-0207
fission-0207
fission-0207
fission-0207
fission-0207
fission-0207
fission-0207
fission-0207
fission-0207
fission-0207
fission-0207
fission-0207
fission-0207
fission-0207
fission-0207
fission-0207
fission-0207
fission-0207
fission-0207
fission-0207
fission-0207
fission-0207
fission-0207
fission-0207
fission-0207
fission-0207
fission-0207
fission-0207
fission-0207
fission-0207
fission-0207
fission-0207
fission-0158
fission-0158
fission-0158
fission-0158
fission-0158
fission-0158
fission-0158
fission-0158
fission-0158
fission-0158
fission-0158
fission-0158
fission-0158
fission-0158
fission-0158
fission-0158
fission-0158
fission-0158
fission-0158
fission-0158
fission-0158
fission-0158
fission-0158
fission-0158
fission-0158
fission-0158
fission-0158
fission-0158
fission-0158
fission-0158
fission-0158
fission-0158
fission-0036
fission-0036
fission-0036
fission-0036
fission-0036
fission-0036
fission-0036
fission-0036
fission-0036
fission-0036
fission-0036
fission-0036
fission-0036
fission-0036
fission-0036
fission-0036
fission-0036
fission-0036
fission-0036
fission-0036
fission-0036
fission-0036
fission-0036
fission-0036
fission-0036
fission-0036
fission-0036
fission-0036
fission-0036
fission-0036
fission-0036
fission-0036

The following PBS extra args (PBS_EXTRA_ARGS) will be used: -P ldrd
The following lammps extra args (LAMMPS_EXTRA_ARGS) will be used:
LAMMPS (16 Feb 2016)
#log		log.c
units           metal
dimension       3
boundary        p p p
atom_style      atomic
shell         mkdir  cfg
shell         mkdir  dump

# ----------------------- ATOM DEFINITION & Force Field -------------
# ----------------------- ATOM DEFINITION ----------------------------
lattice         fcc 4.024845358 #origin 0.0 0.0 0.0 orient x 1 -1 0 orient y 1 1 -2 orient z 1 1 1
Lattice spacing in x,y,z = 4.02485 4.02485 4.02485
variable        Lx equal 52
variable        Ly equal 2
variable        Lz equal 208
variable        boxLZ equal 218
region          SYSTEM block -52 52 -2 2 -208 0 units lattice
region          BOX block -52 52 -2 2 -218 5 units lattice
create_box      1 BOX
Created orthogonal box = (-209.292 -8.04969 -877.416) to (209.292 8.04969 20.1242)
create_atoms    1 region SYSTEM
Created 346944 atoms

delete_atoms     porosity BOX 0.002 14459    ##random seed <RAND1>
Deleted 681 atoms, new total = 346263

#---------------------------------------------------------------------------------
pair_style      eam/alloy
pair_coeff  	  * * Al_wkg_MSMSE_2009.set Al

#----------------------------------------------------------------------------------
velocity       all create 300.0 3609 mom yes rot yes dist gaussian         ##random seed <RAND2>

fix             1 all npt temp 300 300 0.1 iso 0.0 0.0 2
run      10000
  1 neighbor list requests
  update every 1 steps, delay 10 steps, check yes
Setting up Verlet run ...
  Unit style  : metal
  Current step: 0
  Time step   : 0.001
Step Temp E_pair E_mol TotEng Press Volume
0          300   -914909.17            0    -901481.8    1618.5775    6048473.6
Loop time of 60.9147 on 512 procs for 10000 steps with 346263 atoms

unfix 1

fix            2 all nvt temp 300.0 300.0 0.1

run      10000
Setting up Verlet run ...
  Unit style  : metal
  Current step: 10000
  Time step   : 0.001
Step Temp E_pair E_mol TotEng Press
10000    299.63489   -900921.25            0   -887510.23   -17.407282
Loop time of 60.343 on 512 procs for 10000 steps with 346263 atoms

reset_timestep 0
unfix    2
#---------------------- DEFINE Laser GERION and GROUP ----------------
region       R1  block -75  75  INF  INF  INF  5  units box
group        G1 region R1
123535 atoms in group G1
group        G2 subtract all G1
222728 atoms in group G2

#define     temperature/pressure calculation  group
variable    x1atom atom "x>=0  &&  x<4 &&  z>-40 && z<1"     ##NEW!!!!!!!!!!!!
variable    x2atom atom "x>=-209.292  &&  x<-205.292 &&  z>-40 && z<1"
variable    x3atom atom "x>=0  &&  x<4 &&  z>-20 && z<1"
variable    x4atom atom "x>=-209.292  &&  x<-205.292 &&  z>-20 && z<1"
variable    x5atom atom "x>=196  &&  x<200 &&  z>-40 && z<1"

group       x1atom variable x1atom
153 atoms in group x1atom
group       x2atom variable x2atom
160 atoms in group x2atom
group       x3atom variable x3atom
78 atoms in group x3atom
group       x4atom variable x4atom
80 atoms in group x4atom
group       x5atom variable x5atom
160 atoms in group x5atom

compute      COM1x x1atom com
compute      COM2x x2atom com
compute      COM3x x3atom com
compute      COM4x x4atom com
compute      COM5x x5atom com

compute      COMall all com

#Temperature profile
#variable      Tprofile atom 300*(1+(step/5000)*2.5*exp(z/40))
variable      Tprofile atom 300*(1+(step/5000)*2.5*exp(z/75))

# ------------------------- SETTINGS ---------------------------------
thermo          100
thermo_style    custom step lx pxx pyy pzz temp c_COM1x[1] c_COM1x[2] c_COM1x[3] c_COM2x[1] c_COM2x[2] c_COM2x[3] c_COM3x[1] c_COM3x[2] c_COM3x[3] c_COM4x[1] c_COM4x[2] c_COM4x[3]  c_COM5x[1] c_COM5x[2] c_COM5x[3] c_COMall[1] c_COMall[2] c_COMall[3]

timestep       0.002

compute dispall all displace/atom
# ---------------- Run Laser Material Interaction --------------------
#dump          1 all custom 1000 dump/z1dump.atom id type x y z c_dispall[1]  c_dispall[2]  c_dispall[3] c_dispall[4]
#dump          2 all cfg 100 cfg/*.cfg mass type xs ys zs
#dump_modify   2 element Al

#relax for 2 PS
#fix           1 all nvt temp 300.0 300.0 0.1
#run  1000
#unfix         1

fix           1  all nve
fix           3temp  G1  langevin  v_Tprofile  0  0.1  378411   #TEST ALL
run           5000
Setting up Verlet run ...
  Unit style  : metal
  Current step: 0
  Time step   : 0.002
Step Lx Pxx Pyy Pzz Temp COM1x[1] COM1x[2] COM1x[3] COM2x[1] COM2x[2] COM2x[3] COM3x[1] COM3x[2] COM3x[3] COM4x[1] COM4x[2] COM4x[3] COM5x[1] COM5x[2] COM5x[3] COMall[1 COMall[2 COMall[3
0    421.47694    168.72962    145.43062   -106.83059     299.6492    1.2736854    -1.036602   -19.677648   -207.70852   -1.0242892   -19.728364    1.2679745   -1.0757878   -9.7584794    -207.7169    -1.047701   -9.5851045    197.52527  -0.96437756   -19.814482   -1.0031149   -1.0126771   -418.50294
Averages over the last 26 of 51 rows, steps 2500 to 5000:
Lx Pxx Pyy Pzz Temp COM1x[1] COM1x[2] COM1x[3] COM2x[1] COM2x[2] COM2x[3] COM3x[1] COM3x[2] COM3x[3] COM4x[1] COM4x[2] COM4x[3] COM5x[1] COM5x[2] COM5x[3] COMall[1 COMall[2 COMall[3
421.477 1219.4 1173.53 791.21 322.368 1.15191 -1.01204 -19.3018 -207.648 -0.974556 -19.9465 1.11189 -1.00098 -9.19137 -207.649 -0.968484 -9.77189 197.682 -0.964623 -19.9578 -0.991561 -1.00991 -418.557
Loop time of 29.6453 on 512 procs for 5000 steps with 346263 atoms

variable  com1_x equal "c_COM1x[1]"
variable  com1_y equal "c_COM1x[2]"
variable  com1_z equal "c_COM1x[3]"
variable  com2_x equal "c_COM2x[1]"
variable  com2_y equal "c_COM2x[2]"
variable  com2_z equal "c_COM2x[3]"
variable  com3_x equal "c_COM3x[1]"
variable  com3_y equal "c_COM3x[2]"
variable  com3_z equal "c_COM3x[3]"
variable  com4_x equal "c_COM4x[1]"
variable  com4_y equal "c_COM4x[2]"
variable  com4_z equal "c_COM4x[3]"
variable  com5_x equal "c_COM5x[1]"
variable  com5_y equal "c_COM5x[2]"
variable  com5_z equal "c_COM5x[3]"
variable  comall_x equal "c_COMall[1]"
variable  comall_y equal "c_COMall[2]"
variable  comall_z equal "c_COMall[3]"

#-------------------------- Wave Propagation -------------------------
unfix        3temp
run          1000000
Setting up Verlet run ...
  Unit style  : metal
  Current step: 5000
  Time step   : 0.002
Step Lx Pxx Pyy Pzz Temp COM1x[1] COM1x[2] COM1x[3] COM2x[1] COM2x[2] COM2x[3] COM3x[1] COM3x[2] COM3x[3] COM4x[1] COM4x[2] COM4x[3] COM5x[1] COM5x[2] COM5x[3] COMall[1 COMall[2 COMall[3
5000    421.47694    1456.3765    1428.3789    914.97893    330.57842    1.1874239  -0.88799969   -19.152829   -207.72171   -1.1412805   -19.740567    1.1793543  -0.89516425   -8.9525626   -207.69994   -1.1119666   -9.5607135     197.6587   -1.1452573   -19.747589   -1.0034781   -1.0048299   -418.56843
Averages over the last 163 of 325 rows, steps 21200 to 37400:
Lx Pxx Pyy Pzz Temp COM1x[1] COM1x[2] COM1x[3] COM2x[1] COM2x[2] COM2x[3] COM3x[1] COM3x[2] COM3x[3] COM4x[1] COM4x[2] COM4x[3] COM5x[1] COM5x[2] COM5x[3] COMall[1 COMall[2 COMall[3
421.477 974.711 944.367 -59.0814 330.928 0.898381 -0.815833 -18.67 -208.008 -0.83409 -19.5571 0.892655 -0.822085 -8.57143 -208.013 -0.832715 -9.35011 197.298 -0.829088 -19.5593 -1.26729 -0.825299 -418.999
[0->448] send desc error, wc_opcode=1
[0->448] wc.status=12, wc.wr_id=0xef959f0, wc.opcode=1, vbuf->phead->type=0 = MPIDI_CH3_PKT_EAGER_SEND
[fission-0281:mpi_rank_320][MPIDI_CH3I_MRAILI_Cq_poll] src/mpid/ch3/channels/mrail/src/gen2/ibv_channel_manager.c:586: [] Got completion with error 12, vendor code=0x81, dest rank=448
: No such file or directory (2)

===================================================================================
=   BAD TERMINATION OF ONE OF YOUR APPLICATION PROCESSES
=   EXIT CODE: 252
=   CLEANING UP REMAINING PROCESSES
=   YOU CAN IGNORE THE BELOW CLEANUP MESSAGES
===================================================================================
[proxy:0:0@fission-0090] HYD_pmcd_pmip_control_cmd_cb (./pm/pmiserv/pmip_cb.c:913): assert (!closed) failed
[proxy:0:0@fission-0090] HYDT_dmxu_poll_wait_for_event (./tools/demux/demux_poll.c:77): callback returned error status
[proxy:0:0@fission-0090] main (./pm/pmiserv/pmip.c:206): demux engine error waiting for event
[proxy:0:1@fission-0280] HYD_pmcd_pmip_control_cmd_cb (./pm/pmiserv/pmip_cb.c:913): assert (!closed) failed
[proxy:0:1@fission-0280] HYDT_dmxu_poll_wait_for_event (./tools/demux/demux_poll.c:77): callback returned error status
[proxy:0:1@fission-0280] main (./pm/pmiserv/pmip.c:206): demux engine error waiting for event
[proxy:0:2@fission-0075] HYD_pmcd_pmip_control_cmd_cb (./pm/pmiserv/pmip_cb.c:913): assert (!closed) failed
[proxy:0:2@fission-0075] HYDT_dmxu_poll_wait_for_event (./tools/demux/demux_poll.c:77): callback returned error status
[proxy:0:2@fission-0075] main (./pm/pmiserv/pmip.c:206): demux engine error waiting for event
[proxy:0:3@fission-0150] HYD_pmcd_pmip_control_cmd_cb (./pm/pmiserv/pmip_cb.c:913): assert (!closed) failed
[proxy:0:3@fission-0150] HYDT_dmxu_poll_wait_for_event (./tools/demux/demux_poll.c:77): callback returned error status
[proxy:0:3@fission-0150] main (./pm/pmiserv/pmip.c:206): demux engine error waiting for event
[proxy:0:4@fission-0202] HYD_pmcd_pmip_control_cmd_cb (./pm/pmiserv/pmip_cb.c:913): assert (!closed) failed
[proxy:0:4@fission-0202] HYDT_dmxu_poll_wait_for_event (./tools/demux/demux_poll.c:77): callback returned error status
[proxy:0:4@fission-0202] main (./pm/pmiserv/pmip.c:206): demux engine error waiting for event
[proxy:0:6@fission-0051] HYD_pmcd_pmip_control_cmd_cb (./pm/pmiserv/pmip_cb.c:913): assert (!closed) failed
[proxy:0:6@fission-0051] HYDT_dmxu_poll_wait_for_event (./tools/demux/demux_poll.c:77): callback returned error status
[proxy:0:6@fission-0051] main (./pm/pmiserv/pmip.c:206): demux engine error waiting for event
[proxy:0:8@fission-0292] HYD_pmcd_pmip_control_cmd_cb (./pm/pmiserv/pmip_cb.c:913): assert (!closed) failed
[proxy:0:8@fission-0292] HYDT_dmxu_poll_wait_for_event (./tools/demux/demux_poll.c:77): callback returned error status
[proxy:0:8@fission-0292] main (./pm/pmiserv/pmip.c:206): demux engine error waiting for event
[proxy:0:9@fission-0184] HYD_pmcd_pmip_control_cmd_cb (./pm/pmiserv/pmip_cb.c:913): assert (!closed) failed
[proxy:0:9@fission-0184] HYDT_dmxu_poll_wait_for_event (./tools/demux/demux_poll.c:77): callback returned error status
[proxy:0:9@fission-0184] main (./pm/pmiserv/pmip.c:206): demux engine error waiting for event
[proxy:0:11@fission-0243] HYD_pmcd_pmip_control_cmd_cb (./pm/pmiserv/pmip_cb.c:913): assert (!closed) failed
[proxy:0:11@fission-0243] HYDT_dmxu_poll_wait_for_event (./tools/demux/demux_poll.c:77): callback returned error status
[proxy:0:11@fission-0243] main (./pm/pmiserv/pmip.c:206): demux engine error waiting for event
[proxy:0:13@fission-0207] HYD_pmcd_pmip_control_cmd_cb (./pm/pmiserv/pmip_cb.c:913): assert (!closed) failed
[proxy:0:13@fission-0207] HYDT_dmxu_poll_wait_for_event (./tools/demux/demux_poll.c:77): callback returned error status
[proxy:0:13@fission-0207] main (./pm/pmiserv/pmip.c:206): demux engine error waiting for event
[mpiexec@fission-0090] HYDT_bscu_wait_for_completion (./tools/bootstrap/utils/bscu_wait.c:76): one of the processes terminated badly; aborting
[mpiexec@fission-0090] HYDT_bsci_wait_for_completion (./tools/bootstrap/src/bsci_wait.c:23): launcher returned error waiting for completion
[mpiexec@fission-0090] HYD_pmci_wait_for_completion (./pm/pmiserv/pmiserv_pmci.c:217): launcher returned error waiting for completion
[mpiexec@fission-0090] main (./ui/mpich/mpiexec.c:331): process manager error waiting for completion
