fission-0224
fission-0224
fission-0224
fission-0224
fission-0224
fission-0224
fission-0224
fission-0224
fission-0224
fission-0224
fission-0224
fission-0224
fission-0224
fission-0224
fission-0224
fission-0224
fission-0224
fission-0224
fission-0224
fission-0224
fission-0224
fission-0224
fission-0224
fission-0224
fission-0224
fission-0224
fission-0224
fission-0224
fission-0224
fission-0224
fission-0224
fission-0224
fission-0278
fission-0278
fission-0278
fission-0278
fission-0278
fission-0278
fission-0278
fission-0278
fission-0278
fission-0278
fission-0278
fission-0278
fission-0278
fission-0278
fission-0278
fission-0278
fission-0278
fission-0278
fission-0278
fission-0278
fission-0278
fission-0278
fission-0278
fission-0278
fission-0278
fission-0278
fission-0278
fission-0278
fission-0278
fission-0278
fission-0278
fission-0278
fission-0085
fission-0085
fission-0085
fission-0085
fission-0085
fission-0085
fission-0085
fission-0085
fission-0085
fission-0085
fission-0085
fission-0085
fission-0085
fission-0085
fission-0085
fission-0085
fission-0085
fission-0085
fission-0085
fission-0085
fission-0085
fission-0085
fission-0085
fission-0085
fission-0085
fission-0085
fission-0085
fission-0085
fission-0085
fission-0085
fission-0085
fission-0085
fission-0145
fission-0145
fission-0145
fission-0145
fission-0145
fission-0145
fission-0145
fission-0145
fission-0145
fission-0145
fission-0145
fission-0145
fission-0145
fission-0145
fission-0145
fission-0145
fission-0145
fission-0145
fission-0145
fission-0145
fission-0145
fission-0145
fission-0145
fission-0145
fission-0145
fission-0145
fission-0145
fission-0145
fission-0145
fission-0145
fission-0145
fission-0145
fission-0244
fission-0244
fission-0244
fission-0244
fission-0244
fission-0244
fission-0244
fission-0244
fission-0244
fission-0244
fission-0244
fission-0244
fission-0244
fission-0244
fission-0244
fission-0244
fission-0244
fission-0244
fission-0244
fission-0244
fission-0244
fission-0244
fission-0244
fission-0244
fission-0244
fission-0244
fission-0244
fission-0244
fission-0244
fission-0244
fission-0244
fission-0244
fission-0107
fission-0107
fission-0107
fission-0107
fission-0107
fission-0107
fission-0107
fission-0107
fission-0107
fission-0107
fission-0107
fission-0107
fission-0107
fission-0107
fission-0107
fission-0107
fission-0107
fission-0107
fission-0107
fission-0107
fission-0107
fission-0107
fission-0107
fission-0107
fission-0107
fission-0107
fission-0107
fission-0107
fission-0107
fission-0107
fission-0107
fission-0107
fission-0269
fission-0269
fission-0269
fission-0269
fission-0269
fission-0269
fission-0269
fission-0269
fission-0269
fission-0269
fission-0269
fission-0269
fission-0269
fission-0269
fission-0269
fission-0269
fission-0269
fission-0269
fission-0269
fission-0269
fission-0269
fission-0269
fission-0269
fission-0269
fission-0269
fission-0269
fission-0269
fission-0269
fission-0269
fission-0269
fission-0269
fission-0269
fission-0225
fission-0225
fission-0225
fission-0225
fission-0225
fission-0225
fission-0225
fission-0225
fission-0225
fission-0225
fission-0225
fission-0225
fission-0225
fission-0225
fission-0225
fission-0225
fission-0225
fission-0225
fission-0225
fission-0225
fission-0225
fission-0225
fission-0225
fission-0225
fission-0225
fission-0225
fission-0225
fission-0225
fission-0225
fission-0225
fission-0225
fission-0225
fission-0229
fission-0229
fission-0229
fission-0229
fission-0229
fission-0229
fission-0229
fission-0229
fission-0229
fission-0229
fission-0229
fission-0229
fission-0229
fission-0229
fission-0229
fission-0229
fission-0229
fission-0229
fission-0229
fission-0229
fission-0229
fission-0229
fission-0229
fission-0229
fission-0229
fission-0229
fission-0229
fission-0229
fission-0229
fission-0229
fission-0229
fission-0229
fission-0231
fission-0231
fission-0231
fission-0231
fission-0231
fission-0231
fission-0231
fission-0231
fission-0231
fission-0231
fission-0231
fission-0231
fission-0231
fission-0231
fission-0231
fission-0231
fission-0231
fission-0231
fission-0231
fission-0231
fission-0231
fission-0231
fission-0231
fission-0231
fission-0231
fission-0231
fission-0231
fission-0231
fission-0231
fission-0231
fission-0231
fission-0231
fission-0307
fission-0307
fission-0307
fission-0307
fission-0307
fission-0307
fission-0307
fission-0307
fission-0307
fission-0307
fission-0307
fission-0307
fission-0307
fission-0307
fission-0307
fission-0307
fission-0307
fission-0307
fission-0307
fission-0307
fission-0307
fission-0307
fission-0307
fission-0307
fission-0307
fission-0307
fission-0307
fission-0307
fission-0307
fission-0307
fission-0307
fission-0307
fission-0304
fission-0304
fission-0304
fission-0304
fission-0304
fission-0304
fission-0304
fission-0304
fission-0304
fission-0304
fission-0304
fission-0304
fission-0304
fission-0304
fission-0304
fission-0304
fission-0304
fission-0304
fission-0304
fission-0304
fission-0304
fission-0304
fission-0304
fission-0304
fission-0304
fission-0304
fission-0304
fission-0304
fission-0304
fission-0304
fission-0304
fission-0304
fission-0305
fission-0305
fission-0305
fission-0305
fission-0305
fission-0305
fission-0305
fission-0305
fission-0305
fission-0305
fission-0305
fission-0305
fission-0305
fission-0305
fission-0305
fission-0305
fission-0305
fission-0305
fission-0305
fission-0305
fission-0305
fission-0305
fission-0305
fission-0305
fission-0305
fission-0305
fission-0305
fission-0305
fission-0305
fission-0305
fission-0305
fission-0305
fission-0356
fission-0356
fission-0356
fission-0356
fission-0356
fission-0356
fission-0356
fission-0356
fission-0356
fission-0356
fission-0356
fission-0356
fission-0356
fission-0356
fission-0356
fission-0356
fission-0356
fission-0356
fission-0356
fission-0356
fission-0356
fission-0356
fission-0356
fission-0356
fission-0356
fission-0356
fission-0356
fission-0356
fission-0356
fission-0356
fission-0356
fission-0356
fission-0268
fission-0268
fission-0268
fission-0268
fission-0268
fission-0268
fission-0268
fission-0268
fission-0268
fission-0268
fission-0268
fission-0268
fission-0268
fission-0268
fission-0268
fission-0268
fission-0268
fission-0268
fission-0268
fission-0268
fission-0268
fission-0268
fission-0268
fission-0268
fission-0268
fission-0268
fission-0268
fission-0268
fission-0268
fission-0268
fission-0268
fission-0268
fission-0071
fission-0071
fission-0071
fission-0071
fission-0071
fission-0071
fission-0071
fission-0071
fission-0071
fission-0071
fission-0071
fission-0071
fission-0071
fission-0071
fission-0071
fission-0071
fission-0071
fission-0071
fission-0071
fission-0071
fission-0071
fission-0071
fission-0071
fission-0071
fission-0071
fission-0071
fission-0071
fission-0071
fission-0071
fission-0071
fission-0071
fission-0071

The following PBS extra args (PBS_EXTRA_ARGS) will be used: -P ldrd
The following lammps extra args (LAMMPS_EXTRA_ARGS) will be used:
LAMMPS (16 Feb 2016)
#log		log.c
units           metal
dimension       3
boundary        p p p
atom_style      atomic
shell         mkdir  cfg
shell         mkdir  dump

# ----------------------- ATOM DEFINITION & Force Field -------------
# ----------------------- ATOM DEFINITION ----------------------------
lattice         fcc 4.024845358 #origin 0.0 0.0 0.0 orient x 1 -1 0 orient y 1 1 -2 orient z 1 1 1
Lattice spacing in x,y,z = 4.02485 4.02485 4.02485
variable        Lx equal 52
variable        Ly equal 2
variable        Lz equal 208
variable        boxLZ equal 218
region          SYSTEM block -52 52 -2 2 -208 0 units lattice
region          BOX block -52 52 -2 2 -218 5 units lattice
create_box      1 BOX
Created orthogonal box = (-209.292 -8.04969 -877.416) to (209.292 8.04969 20.1242)
create_atoms    1 region SYSTEM
Created 346944 atoms

delete_atoms     porosity BOX 0.002 19448    ##random seed <RAND1>
Deleted 710 atoms, new total = 346234

#---------------------------------------------------------------------------------
pair_style      eam/alloy
pair_coeff  	  * * Al_wkg_MSMSE_2009.set Al

#----------------------------------------------------------------------------------
velocity       all create 300.0 24781 mom yes rot yes dist gaussian         ##random seed <RAND2>

fix             1 all npt temp 300 300 0.1 iso 0.0 0.0 2
run      10000
  1 neighbor list requests
  update every 1 steps, delay 10 steps, check yes
Setting up Verlet run ...
  Unit style  : metal
  Current step: 0
  Time step   : 0.001
Step Temp E_pair E_mol TotEng Press Volume
0          300   -914809.28            0   -901383.04    1591.0477    6048473.6
Loop time of 60.8093 on 512 procs for 10000 steps with 346234 atoms

unfix 1

fix            2 all nvt temp 300.0 300.0 0.1

run      10000
Setting up Verlet run ...
  Unit style  : metal
  Current step: 10000
  Time step   : 0.001
Step Temp E_pair E_mol TotEng Press
10000    299.60893    -900826.1            0   -887417.37    8.3718669
Loop time of 60.443 on 512 procs for 10000 steps with 346234 atoms

reset_timestep 0
unfix    2
#---------------------- DEFINE Laser GERION and GROUP ----------------
region       R1  block -75  75  INF  INF  INF  5  units box
group        G1 region R1
123526 atoms in group G1
group        G2 subtract all G1
222708 atoms in group G2

#define     temperature/pressure calculation  group
variable    x1atom atom "x>=0  &&  x<4 &&  z>-40 && z<1"     ##NEW!!!!!!!!!!!!
variable    x2atom atom "x>=-209.292  &&  x<-205.292 &&  z>-40 && z<1"
variable    x3atom atom "x>=0  &&  x<4 &&  z>-20 && z<1"
variable    x4atom atom "x>=-209.292  &&  x<-205.292 &&  z>-20 && z<1"
variable    x5atom atom "x>=196  &&  x<200 &&  z>-40 && z<1"

group       x1atom variable x1atom
161 atoms in group x1atom
group       x2atom variable x2atom
160 atoms in group x2atom
group       x3atom variable x3atom
80 atoms in group x3atom
group       x4atom variable x4atom
80 atoms in group x4atom
group       x5atom variable x5atom
160 atoms in group x5atom

compute      COM1x x1atom com
compute      COM2x x2atom com
compute      COM3x x3atom com
compute      COM4x x4atom com
compute      COM5x x5atom com

compute      COMall all com

#Temperature profile
#variable      Tprofile atom 300*(1+(step/5000)*2.5*exp(z/40))
variable      Tprofile atom 300*(1+(step/5000)*2.5*exp(z/75))

# ------------------------- SETTINGS ---------------------------------
thermo          100
thermo_style    custom step lx pxx pyy pzz temp c_COM1x[1] c_COM1x[2] c_COM1x[3] c_COM2x[1] c_COM2x[2] c_COM2x[3] c_COM3x[1] c_COM3x[2] c_COM3x[3] c_COM4x[1] c_COM4x[2] c_COM4x[3]  c_COM5x[1] c_COM5x[2] c_COM5x[3] c_COMall[1] c_COMall[2] c_COMall[3]

timestep       0.002

compute dispall all displace/atom
# ---------------- Run Laser Material Interaction --------------------
#dump          1 all custom 1000 dump/z1dump.atom id type x y z c_dispall[1]  c_dispall[2]  c_dispall[3] c_dispall[4]
#dump          2 all cfg 100 cfg/*.cfg mass type xs ys zs
#dump_modify   2 element Al

#relax for 2 PS
#fix           1 all nvt temp 300.0 300.0 0.1
#run  1000
#unfix         1

fix           1  all nve
fix           3temp  G1  langevin  v_Tprofile  0  0.1  378411   #TEST ALL
run           5000
Setting up Verlet run ...
  Unit style  : metal
  Current step: 0
  Time step   : 0.002
Step Lx Pxx Pyy Pzz Temp COM1x[1] COM1x[2] COM1x[3] COM2x[1] COM2x[2] COM2x[3] COM3x[1] COM3x[2] COM3x[3] COM4x[1] COM4x[2] COM4x[3] COM5x[1] COM5x[2] COM5x[3] COMall[1 COMall[2 COMall[3
0    421.45977    221.19797    181.91949    -56.84364      299.687    1.7421456   -1.1208363   -19.682441   -207.79765   -1.0260491   -19.892111    1.4968293  -0.86995093   -9.3491116   -207.82907   -1.0445677   -9.7399738    197.43674  -0.94877001    -19.89353   -1.0194215   -1.0133819   -418.48485
Averages over the last 26 of 51 rows, steps 2500 to 5000:
Lx Pxx Pyy Pzz Temp COM1x[1] COM1x[2] COM1x[3] COM2x[1] COM2x[2] COM2x[3] COM3x[1] COM3x[2] COM3x[3] COM4x[1] COM4x[2] COM4x[3] COM5x[1] COM5x[2] COM5x[3] COMall[1 COMall[2 COMall[3
421.46 1213.1 1175.91 734.581 322.22 1.6667 -1.13465 -19.4025 -207.75 -1.04727 -19.8745 1.41325 -0.789619 -8.92241 -207.753 -1.04141 -9.70843 197.57 -1.02573 -19.8776 -1.01763 -1.01792 -418.499
Loop time of 31.4374 on 512 procs for 5000 steps with 346234 atoms

variable  com1_x equal "c_COM1x[1]"
variable  com1_y equal "c_COM1x[2]"
variable  com1_z equal "c_COM1x[3]"
variable  com2_x equal "c_COM2x[1]"
variable  com2_y equal "c_COM2x[2]"
variable  com2_z equal "c_COM2x[3]"
variable  com3_x equal "c_COM3x[1]"
variable  com3_y equal "c_COM3x[2]"
variable  com3_z equal "c_COM3x[3]"
variable  com4_x equal "c_COM4x[1]"
variable  com4_y equal "c_COM4x[2]"
variable  com4_z equal "c_COM4x[3]"
variable  com5_x equal "c_COM5x[1]"
variable  com5_y equal "c_COM5x[2]"
variable  com5_z equal "c_COM5x[3]"
variable  comall_x equal "c_COMall[1]"
variable  comall_y equal "c_COMall[2]"
variable  comall_z equal "c_COMall[3]"

#-------------------------- Wave Propagation -------------------------
unfix        3temp
run          1000000
Setting up Verlet run ...
  Unit style  : metal
  Current step: 5000
  Time step   : 0.002
Step Lx Pxx Pyy Pzz Temp COM1x[1] COM1x[2] COM1x[3] COM2x[1] COM2x[2] COM2x[3] COM3x[1] COM3x[2] COM3x[3] COM4x[1] COM4x[2] COM4x[3] COM5x[1] COM5x[2] COM5x[3] COMall[1 COMall[2 COMall[3
5000    421.45977    1495.8647    1458.3574    913.80845    330.52541    1.6993665   -1.0145776    -19.25844   -207.75374   -1.0156754   -19.770787    1.4856796  -0.56887666   -8.6921401   -207.72392    -1.007072   -9.6298603    197.57407   -1.0417296   -19.733023   -1.0181546   -1.0115135   -418.51801
Averages over the last 5001 of 10001 rows, steps 505000 to 1005000:
Lx Pxx Pyy Pzz Temp COM1x[1] COM1x[2] COM1x[3] COM2x[1] COM2x[2] COM2x[3] COM3x[1] COM3x[2] COM3x[3] COM4x[1] COM4x[2] COM4x[3] COM5x[1] COM5x[2] COM5x[3] COMall[1 COMall[2 COMall[3
421.46 1043.19 1021.49 -6.99375 331.193 -9.8358 0.357777 -44.8474 -219.276 0.528129 -45.0027 -10.0979 0.65455 -34.5063 -219.272 0.528155 -34.8409 185.961 0.527902 -44.9921 -12.6061 0.526933 -444.276
Loop time of 5888.48 on 512 procs for 1000000 steps with 346234 atoms
