fission-0072
fission-0072
fission-0072
fission-0072
fission-0072
fission-0072
fission-0072
fission-0072
fission-0072
fission-0072
fission-0072
fission-0072
fission-0072
fission-0072
fission-0072
fission-0072
fission-0072
fission-0072
fission-0072
fission-0072
fission-0072
fission-0072
fission-0072
fission-0072
fission-0072
fission-0072
fission-0072
fission-0072
fission-0072
fission-0072
fission-0072
fission-0072
fission-0057
fission-0057
fission-0057
fission-0057
fission-0057
fission-0057
fission-0057
fission-0057
fission-0057
fission-0057
fission-0057
fission-0057
fission-0057
fission-0057
fission-0057
fission-0057
fission-0057
fission-0057
fission-0057
fission-0057
fission-0057
fission-0057
fission-0057
fission-0057
fission-0057
fission-0057
fission-0057
fission-0057
fission-0057
fission-0057
fission-0057
fission-0057
fission-0084
fission-0084
fission-0084
fission-0084
fission-0084
fission-0084
fission-0084
fission-0084
fission-0084
fission-0084
fission-0084
fission-0084
fission-0084
fission-0084
fission-0084
fission-0084
fission-0084
fission-0084
fission-0084
fission-0084
fission-0084
fission-0084
fission-0084
fission-0084
fission-0084
fission-0084
fission-0084
fission-0084
fission-0084
fission-0084
fission-0084
fission-0084
fission-0062
fission-0062
fission-0062
fission-0062
fission-0062
fission-0062
fission-0062
fission-0062
fission-0062
fission-0062
fission-0062
fission-0062
fission-0062
fission-0062
fission-0062
fission-0062
fission-0062
fission-0062
fission-0062
fission-0062
fission-0062
fission-0062
fission-0062
fission-0062
fission-0062
fission-0062
fission-0062
fission-0062
fission-0062
fission-0062
fission-0062
fission-0062
fission-0063
fission-0063
fission-0063
fission-0063
fission-0063
fission-0063
fission-0063
fission-0063
fission-0063
fission-0063
fission-0063
fission-0063
fission-0063
fission-0063
fission-0063
fission-0063
fission-0063
fission-0063
fission-0063
fission-0063
fission-0063
fission-0063
fission-0063
fission-0063
fission-0063
fission-0063
fission-0063
fission-0063
fission-0063
fission-0063
fission-0063
fission-0063
fission-0064
fission-0064
fission-0064
fission-0064
fission-0064
fission-0064
fission-0064
fission-0064
fission-0064
fission-0064
fission-0064
fission-0064
fission-0064
fission-0064
fission-0064
fission-0064
fission-0064
fission-0064
fission-0064
fission-0064
fission-0064
fission-0064
fission-0064
fission-0064
fission-0064
fission-0064
fission-0064
fission-0064
fission-0064
fission-0064
fission-0064
fission-0064
fission-0067
fission-0067
fission-0067
fission-0067
fission-0067
fission-0067
fission-0067
fission-0067
fission-0067
fission-0067
fission-0067
fission-0067
fission-0067
fission-0067
fission-0067
fission-0067
fission-0067
fission-0067
fission-0067
fission-0067
fission-0067
fission-0067
fission-0067
fission-0067
fission-0067
fission-0067
fission-0067
fission-0067
fission-0067
fission-0067
fission-0067
fission-0067
fission-0082
fission-0082
fission-0082
fission-0082
fission-0082
fission-0082
fission-0082
fission-0082
fission-0082
fission-0082
fission-0082
fission-0082
fission-0082
fission-0082
fission-0082
fission-0082
fission-0082
fission-0082
fission-0082
fission-0082
fission-0082
fission-0082
fission-0082
fission-0082
fission-0082
fission-0082
fission-0082
fission-0082
fission-0082
fission-0082
fission-0082
fission-0082
fission-0079
fission-0079
fission-0079
fission-0079
fission-0079
fission-0079
fission-0079
fission-0079
fission-0079
fission-0079
fission-0079
fission-0079
fission-0079
fission-0079
fission-0079
fission-0079
fission-0079
fission-0079
fission-0079
fission-0079
fission-0079
fission-0079
fission-0079
fission-0079
fission-0079
fission-0079
fission-0079
fission-0079
fission-0079
fission-0079
fission-0079
fission-0079
fission-0059
fission-0059
fission-0059
fission-0059
fission-0059
fission-0059
fission-0059
fission-0059
fission-0059
fission-0059
fission-0059
fission-0059
fission-0059
fission-0059
fission-0059
fission-0059
fission-0059
fission-0059
fission-0059
fission-0059
fission-0059
fission-0059
fission-0059
fission-0059
fission-0059
fission-0059
fission-0059
fission-0059
fission-0059
fission-0059
fission-0059
fission-0059
fission-0060
fission-0060
fission-0060
fission-0060
fission-0060
fission-0060
fission-0060
fission-0060
fission-0060
fission-0060
fission-0060
fission-0060
fission-0060
fission-0060
fission-0060
fission-0060
fission-0060
fission-0060
fission-0060
fission-0060
fission-0060
fission-0060
fission-0060
fission-0060
fission-0060
fission-0060
fission-0060
fission-0060
fission-0060
fission-0060
fission-0060
fission-0060
fission-0073
fission-0073
fission-0073
fission-0073
fission-0073
fission-0073
fission-0073
fission-0073
fission-0073
fission-0073
fission-0073
fission-0073
fission-0073
fission-0073
fission-0073
fission-0073
fission-0073
fission-0073
fission-0073
fission-0073
fission-0073
fission-0073
fission-0073
fission-0073
fission-0073
fission-0073
fission-0073
fission-0073
fission-0073
fission-0073
fission-0073
fission-0073
fission-0078
fission-0078
fission-0078
fission-0078
fission-0078
fission-0078
fission-0078
fission-0078
fission-0078
fission-0078
fission-0078
fission-0078
fission-0078
fission-0078
fission-0078
fission-0078
fission-0078
fission-0078
fission-0078
fission-0078
fission-0078
fission-0078
fission-0078
fission-0078
fission-0078
fission-0078
fission-0078
fission-0078
fission-0078
fission-0078
fission-0078
fission-0078
fission-0080
fission-0080
fission-0080
fission-0080
fission-0080
fission-0080
fission-0080
fission-0080
fission-0080
fission-0080
fission-0080
fission-0080
fission-0080
fission-0080
fission-0080
fission-0080
fission-0080
fission-0080
fission-0080
fission-0080
fission-0080
fission-0080
fission-0080
fission-0080
fission-0080
fission-0080
fission-0080
fission-0080
fission-0080
fission-0080
fission-0080
fission-0080
fission-0076
fission-0076
fission-0076
fission-0076
fission-0076
fission-0076
fission-0076
fission-0076
fission-0076
fission-0076
fission-0076
fission-0076
fission-0076
fission-0076
fission-0076
fission-0076
fission-0076
fission-0076
fission-0076
fission-0076
fission-0076
fission-0076
fission-0076
fission-0076
fission-0076
fission-0076
fission-0076
fission-0076
fission-0076
fission-0076
fission-0076
fission-0076
fission-0081
fission-0081
fission-0081
fission-0081
fission-0081
fission-0081
fission-0081
fission-0081
fission-0081
fission-0081
fission-0081
fission-0081
fission-0081
fission-0081
fission-0081
fission-0081
fission-0081
fission-0081
fission-0081
fission-0081
fission-0081
fission-0081
fission-0081
fission-0081
fission-0081
fission-0081
fission-0081
fission-0081
fission-0081
fission-0081
fission-0081
fission-0081

The following PBS extra args (PBS_EXTRA_ARGS) will be used: -P ldrd
The following lammps extra args (LAMMPS_EXTRA_ARGS) will be used:
LAMMPS (16 Feb 2016)
#log		log.c
units           metal
dimension       3
boundary        p p p
atom_style      atomic
shell         mkdir  cfg
shell         mkdir  dump

# ----------------------- ATOM DEFINITION & Force Field -------------
# ----------------------- ATOM DEFINITION ----------------------------
lattice         fcc 4.024845358 #origin 0.0 0.0 0.0 orient x 1 -1 0 orient y 1 1 -2 orient z 1 1 1
Lattice spacing in x,y,z = 4.02485 4.02485 4.02485
variable        Lx equal 52
variable        Ly equal 2
variable        Lz equal 208
variable        boxLZ equal 218
region          SYSTEM block -52 52 -2 2 -208 0 units lattice
region          BOX block -52 52 -2 2 -218 5 units lattice
create_box      1 BOX
Created orthogonal box = (-209.292 -8.04969 -877.416) to (209.292 8.04969 20.1242)
create_atoms    1 region SYSTEM
Created 346944 atoms

delete_atoms     porosity BOX 0.0002 14255    ##random seed <RAND1>
Deleted 64 atoms, new total = 346880

#---------------------------------------------------------------------------------
pair_style      eam/alloy
pair_coeff  	  * * Al_wkg_MSMSE_2009.set Al

#----------------------------------------------------------------------------------
velocity       all create 300.0 8909 mom yes rot yes dist gaussian         ##random seed <RAND2>

fix             1 all npt temp 300 300 0.1 iso 0.0 0.0 2
run      10000
  1 neighbor list requests
  update every 1 steps, delay 10 steps, check yes
Setting up Verlet run ...
  Unit style  : metal
  Current step: 0
  Time step   : 0.001
Step Temp E_pair E_mol TotEng Press Volume
0          300   -917019.85            0   -903568.56    2126.8939    6048473.6
Loop time of 61.57 on 512 procs for 10000 steps with 346880 atoms

unfix 1

fix            2 all nvt temp 300.0 300.0 0.1

run      10000
Setting up Verlet run ...
  Unit style  : metal
  Current step: 10000
  Time step   : 0.001
Step Temp E_pair E_mol TotEng Press
10000    300.17093   -902956.67            0   -889497.72   -14.196524
Loop time of 59.2415 on 512 procs for 10000 steps with 346880 atoms

reset_timestep 0
unfix    2
#---------------------- DEFINE Laser GERION and GROUP ----------------
region       R1  block -75  75  INF  INF  INF  5  units box
group        G1 region R1
123482 atoms in group G1
group        G2 subtract all G1
223398 atoms in group G2

#define     temperature/pressure calculation  group
variable    x1atom atom "x>=0  &&  x<4 &&  z>-40 && z<1"     ##NEW!!!!!!!!!!!!
variable    x2atom atom "x>=-209.292  &&  x<-205.292 &&  z>-40 && z<1"
variable    x3atom atom "x>=0  &&  x<4 &&  z>-20 && z<1"
variable    x4atom atom "x>=-209.292  &&  x<-205.292 &&  z>-20 && z<1"
variable    x5atom atom "x>=196  &&  x<200 &&  z>-40 && z<1"

group       x1atom variable x1atom
156 atoms in group x1atom
group       x2atom variable x2atom
160 atoms in group x2atom
group       x3atom variable x3atom
80 atoms in group x3atom
group       x4atom variable x4atom
80 atoms in group x4atom
group       x5atom variable x5atom
160 atoms in group x5atom

compute      COM1x x1atom com
compute      COM2x x2atom com
compute      COM3x x3atom com
compute      COM4x x4atom com
compute      COM5x x5atom com

compute      COMall all com

#Temperature profile
#variable      Tprofile atom 300*(1+(step/5000)*2.5*exp(z/40))
variable      Tprofile atom 300*(1+(step/5000)*2.5*exp(z/75))

# ------------------------- SETTINGS ---------------------------------
thermo          100
thermo_style    custom step lx pxx pyy pzz temp c_COM1x[1] c_COM1x[2] c_COM1x[3] c_COM2x[1] c_COM2x[2] c_COM2x[3] c_COM3x[1] c_COM3x[2] c_COM3x[3] c_COM4x[1] c_COM4x[2] c_COM4x[3]  c_COM5x[1] c_COM5x[2] c_COM5x[3] c_COMall[1] c_COMall[2] c_COMall[3]

timestep       0.002

compute dispall all displace/atom
# ---------------- Run Laser Material Interaction --------------------
#dump          1 all custom 1000 dump/z1dump.atom id type x y z c_dispall[1]  c_dispall[2]  c_dispall[3] c_dispall[4]
#dump          2 all cfg 100 cfg/*.cfg mass type xs ys zs
#dump_modify   2 element Al

#relax for 2 PS
#fix           1 all nvt temp 300.0 300.0 0.1
#run  1000
#unfix         1

fix           1  all nve
fix           3temp  G1  langevin  v_Tprofile  0  0.1  378411   #TEST ALL
run           5000
Setting up Verlet run ...
  Unit style  : metal
  Current step: 0
  Time step   : 0.002
Step Lx Pxx Pyy Pzz Temp COM1x[1] COM1x[2] COM1x[3] COM2x[1] COM2x[2] COM2x[3] COM3x[1] COM3x[2] COM3x[3] COM4x[1] COM4x[2] COM4x[3] COM5x[1] COM5x[2] COM5x[3] COMall[1 COMall[2 COMall[3
0    421.52608    283.81019    269.59161   -127.73855    300.63079    1.2211329   -1.0218399   -19.617863   -207.69328   -1.0503134   -19.658397      1.22871   -1.0427929   -9.6517173    -207.7242   -1.0836705   -9.5260272    197.66956   -1.0188513   -19.659114   -1.0158661   -1.0132663     -418.513
Averages over the last 26 of 51 rows, steps 2500 to 5000:
Lx Pxx Pyy Pzz Temp COM1x[1] COM1x[2] COM1x[3] COM2x[1] COM2x[2] COM2x[3] COM3x[1] COM3x[2] COM3x[3] COM4x[1] COM4x[2] COM4x[3] COM5x[1] COM5x[2] COM5x[3] COMall[1 COMall[2 COMall[3
421.526 1393.04 1337.9 789.558 322.213 1.12108 -0.942708 -19.2807 -207.748 -1.04305 -19.724 1.08098 -0.924091 -9.16319 -207.752 -1.03825 -9.55612 197.64 -1.04056 -19.7317 -1.00963 -1.02172 -418.545
Loop time of 30.6199 on 512 procs for 5000 steps with 346880 atoms

variable  com1_x equal "c_COM1x[1]"
variable  com1_y equal "c_COM1x[2]"
variable  com1_z equal "c_COM1x[3]"
variable  com2_x equal "c_COM2x[1]"
variable  com2_y equal "c_COM2x[2]"
variable  com2_z equal "c_COM2x[3]"
variable  com3_x equal "c_COM3x[1]"
variable  com3_y equal "c_COM3x[2]"
variable  com3_z equal "c_COM3x[3]"
variable  com4_x equal "c_COM4x[1]"
variable  com4_y equal "c_COM4x[2]"
variable  com4_z equal "c_COM4x[3]"
variable  com5_x equal "c_COM5x[1]"
variable  com5_y equal "c_COM5x[2]"
variable  com5_z equal "c_COM5x[3]"
variable  comall_x equal "c_COMall[1]"
variable  comall_y equal "c_COMall[2]"
variable  comall_z equal "c_COMall[3]"

#-------------------------- Wave Propagation -------------------------
unfix        3temp
run          1000000
Setting up Verlet run ...
  Unit style  : metal
  Current step: 5000
  Time step   : 0.002
Step Lx Pxx Pyy Pzz Temp COM1x[1] COM1x[2] COM1x[3] COM2x[1] COM2x[2] COM2x[3] COM3x[1] COM3x[2] COM3x[3] COM4x[1] COM4x[2] COM4x[3] COM5x[1] COM5x[2] COM5x[3] COMall[1 COMall[2 COMall[3
5000    421.52608    1715.3203    1616.2516    969.49105    330.38379    1.1213638  -0.83705919   -19.107859   -207.73579   -1.0831481   -19.648089    1.0620682  -0.84263528   -8.8625676   -207.75023   -1.1284422    -9.519053    197.58668   -1.0788525   -19.629111   -1.0148266   -1.0067332     -418.554
Averages over the last 5001 of 10001 rows, steps 505000 to 1005000:
Lx Pxx Pyy Pzz Temp COM1x[1] COM1x[2] COM1x[3] COM2x[1] COM2x[2] COM2x[3] COM3x[1] COM3x[2] COM3x[3] COM4x[1] COM4x[2] COM4x[3] COM5x[1] COM5x[2] COM5x[3] COMall[1 COMall[2 COMall[3
421.526 1180.67 1160.24 -6.39922 331.104 -12.339 1.26319 -32.8128 -221.104 1.2501 -33.0051 -12.3657 1.25026 -22.8431 -221.104 1.25028 -22.839 184.209 1.25003 -33.0058 -14.3968 1.24945 -432.476
Loop time of 5861.99 on 512 procs for 1000000 steps with 346880 atoms
