fission-0100
fission-0100
fission-0100
fission-0100
fission-0100
fission-0100
fission-0100
fission-0100
fission-0100
fission-0100
fission-0100
fission-0100
fission-0100
fission-0100
fission-0100
fission-0100
fission-0100
fission-0100
fission-0100
fission-0100
fission-0100
fission-0100
fission-0100
fission-0100
fission-0100
fission-0100
fission-0100
fission-0100
fission-0100
fission-0100
fission-0100
fission-0100
fission-0086
fission-0086
fission-0086
fission-0086
fission-0086
fission-0086
fission-0086
fission-0086
fission-0086
fission-0086
fission-0086
fission-0086
fission-0086
fission-0086
fission-0086
fission-0086
fission-0086
fission-0086
fission-0086
fission-0086
fission-0086
fission-0086
fission-0086
fission-0086
fission-0086
fission-0086
fission-0086
fission-0086
fission-0086
fission-0086
fission-0086
fission-0086
fission-0112
fission-0112
fission-0112
fission-0112
fission-0112
fission-0112
fission-0112
fission-0112
fission-0112
fission-0112
fission-0112
fission-0112
fission-0112
fission-0112
fission-0112
fission-0112
fission-0112
fission-0112
fission-0112
fission-0112
fission-0112
fission-0112
fission-0112
fission-0112
fission-0112
fission-0112
fission-0112
fission-0112
fission-0112
fission-0112
fission-0112
fission-0112
fission-0088
fission-0088
fission-0088
fission-0088
fission-0088
fission-0088
fission-0088
fission-0088
fission-0088
fission-0088
fission-0088
fission-0088
fission-0088
fission-0088
fission-0088
fission-0088
fission-0088
fission-0088
fission-0088
fission-0088
fission-0088
fission-0088
fission-0088
fission-0088
fission-0088
fission-0088
fission-0088
fission-0088
fission-0088
fission-0088
fission-0088
fission-0088
fission-0091
fission-0091
fission-0091
fission-0091
fission-0091
fission-0091
fission-0091
fission-0091
fission-0091
fission-0091
fission-0091
fission-0091
fission-0091
fission-0091
fission-0091
fission-0091
fission-0091
fission-0091
fission-0091
fission-0091
fission-0091
fission-0091
fission-0091
fission-0091
fission-0091
fission-0091
fission-0091
fission-0091
fission-0091
fission-0091
fission-0091
fission-0091
fission-0087
fission-0087
fission-0087
fission-0087
fission-0087
fission-0087
fission-0087
fission-0087
fission-0087
fission-0087
fission-0087
fission-0087
fission-0087
fission-0087
fission-0087
fission-0087
fission-0087
fission-0087
fission-0087
fission-0087
fission-0087
fission-0087
fission-0087
fission-0087
fission-0087
fission-0087
fission-0087
fission-0087
fission-0087
fission-0087
fission-0087
fission-0087
fission-0093
fission-0093
fission-0093
fission-0093
fission-0093
fission-0093
fission-0093
fission-0093
fission-0093
fission-0093
fission-0093
fission-0093
fission-0093
fission-0093
fission-0093
fission-0093
fission-0093
fission-0093
fission-0093
fission-0093
fission-0093
fission-0093
fission-0093
fission-0093
fission-0093
fission-0093
fission-0093
fission-0093
fission-0093
fission-0093
fission-0093
fission-0093
fission-0099
fission-0099
fission-0099
fission-0099
fission-0099
fission-0099
fission-0099
fission-0099
fission-0099
fission-0099
fission-0099
fission-0099
fission-0099
fission-0099
fission-0099
fission-0099
fission-0099
fission-0099
fission-0099
fission-0099
fission-0099
fission-0099
fission-0099
fission-0099
fission-0099
fission-0099
fission-0099
fission-0099
fission-0099
fission-0099
fission-0099
fission-0099
fission-0095
fission-0095
fission-0095
fission-0095
fission-0095
fission-0095
fission-0095
fission-0095
fission-0095
fission-0095
fission-0095
fission-0095
fission-0095
fission-0095
fission-0095
fission-0095
fission-0095
fission-0095
fission-0095
fission-0095
fission-0095
fission-0095
fission-0095
fission-0095
fission-0095
fission-0095
fission-0095
fission-0095
fission-0095
fission-0095
fission-0095
fission-0095
fission-0096
fission-0096
fission-0096
fission-0096
fission-0096
fission-0096
fission-0096
fission-0096
fission-0096
fission-0096
fission-0096
fission-0096
fission-0096
fission-0096
fission-0096
fission-0096
fission-0096
fission-0096
fission-0096
fission-0096
fission-0096
fission-0096
fission-0096
fission-0096
fission-0096
fission-0096
fission-0096
fission-0096
fission-0096
fission-0096
fission-0096
fission-0096
fission-0089
fission-0089
fission-0089
fission-0089
fission-0089
fission-0089
fission-0089
fission-0089
fission-0089
fission-0089
fission-0089
fission-0089
fission-0089
fission-0089
fission-0089
fission-0089
fission-0089
fission-0089
fission-0089
fission-0089
fission-0089
fission-0089
fission-0089
fission-0089
fission-0089
fission-0089
fission-0089
fission-0089
fission-0089
fission-0089
fission-0089
fission-0089
fission-0098
fission-0098
fission-0098
fission-0098
fission-0098
fission-0098
fission-0098
fission-0098
fission-0098
fission-0098
fission-0098
fission-0098
fission-0098
fission-0098
fission-0098
fission-0098
fission-0098
fission-0098
fission-0098
fission-0098
fission-0098
fission-0098
fission-0098
fission-0098
fission-0098
fission-0098
fission-0098
fission-0098
fission-0098
fission-0098
fission-0098
fission-0098
fission-0092
fission-0092
fission-0092
fission-0092
fission-0092
fission-0092
fission-0092
fission-0092
fission-0092
fission-0092
fission-0092
fission-0092
fission-0092
fission-0092
fission-0092
fission-0092
fission-0092
fission-0092
fission-0092
fission-0092
fission-0092
fission-0092
fission-0092
fission-0092
fission-0092
fission-0092
fission-0092
fission-0092
fission-0092
fission-0092
fission-0092
fission-0092
fission-0101
fission-0101
fission-0101
fission-0101
fission-0101
fission-0101
fission-0101
fission-0101
fission-0101
fission-0101
fission-0101
fission-0101
fission-0101
fission-0101
fission-0101
fission-0101
fission-0101
fission-0101
fission-0101
fission-0101
fission-0101
fission-0101
fission-0101
fission-0101
fission-0101
fission-0101
fission-0101
fission-0101
fission-0101
fission-0101
fission-0101
fission-0101
fission-0102
fission-0102
fission-0102
fission-0102
fission-0102
fission-0102
fission-0102
fission-0102
fission-0102
fission-0102
fission-0102
fission-0102
fission-0102
fission-0102
fission-0102
fission-0102
fission-0102
fission-0102
fission-0102
fission-0102
fission-0102
fission-0102
fission-0102
fission-0102
fission-0102
fission-0102
fission-0102
fission-0102
fission-0102
fission-0102
fission-0102
fission-0102
fission-0104
fission-0104
fission-0104
fission-0104
fission-0104
fission-0104
fission-0104
fission-0104
fission-0104
fission-0104
fission-0104
fission-0104
fission-0104
fission-0104
fission-0104
fission-0104
fission-0104
fission-0104
fission-0104
fission-0104
fission-0104
fission-0104
fission-0104
fission-0104
fission-0104
fission-0104
fission-0104
fission-0104
fission-0104
fission-0104
fission-0104
fission-0104

The following PBS extra args (PBS_EXTRA_ARGS) will be used: -P ldrd
The following lammps extra args (LAMMPS_EXTRA_ARGS) will be used:
LAMMPS (16 Feb 2016)
#log		log.c
units           metal
dimension       3
boundary        p p p
atom_style      atomic
shell         mkdir  cfg
shell         mkdir  dump

# ----------------------- ATOM DEFINITION & Force Field -------------
# ----------------------- ATOM DEFINITION ----------------------------
lattice         fcc 4.024845358 #origin 0.0 0.0 0.0 orient x 1 -1 0 orient y 1 1 -2 orient z 1 1 1
Lattice spacing in x,y,z = 4.02485 4.02485 4.02485
variable        Lx equal 52
variable        Ly equal 2
variable        Lz equal 208
variable        boxLZ equal 218
region          SYSTEM block -52 52 -2 2 -208 0 units lattice
region          BOX block -52 52 -2 2 -218 5 units lattice
create_box      1 BOX
Created orthogonal box = (-209.292 -8.04969 -877.416) to (209.292 8.04969 20.1242)
create_atoms    1 region SYSTEM
Created 346944 atoms

delete_atoms     porosity BOX 0.0002 12568    ##random seed <RAND1>
Deleted 71 atoms, new total = 346873

#---------------------------------------------------------------------------------
pair_style      eam/alloy
pair_coeff  	  * * Al_wkg_MSMSE_2009.set Al

#----------------------------------------------------------------------------------
velocity       all create 300.0 26700 mom yes rot yes dist gaussian         ##random seed <RAND2>

fix             1 all npt temp 300 300 0.1 iso 0.0 0.0 2
run      10000
  1 neighbor list requests
  update every 1 steps, delay 10 steps, check yes
Setting up Verlet run ...
  Unit style  : metal
  Current step: 0
  Time step   : 0.001
Step Temp E_pair E_mol TotEng Press Volume
0          300   -916995.91            0    -903544.9      2121.05    6048473.6
Loop time of 60.5013 on 512 procs for 10000 steps with 346873 atoms

unfix 1

fix            2 all nvt temp 300.0 300.0 0.1

run      10000
Setting up Verlet run ...
  Unit style  : metal
  Current step: 10000
  Time step   : 0.001
Step Temp E_pair E_mol TotEng Press
10000    299.38869   -902901.44            0   -889477.83    19.521113
Loop time of 57.3435 on 512 procs for 10000 steps with 346873 atoms

reset_timestep 0
unfix    2
#---------------------- DEFINE Laser GERION and GROUP ----------------
region       R1  block -75  75  INF  INF  INF  5  units box
group        G1 region R1
123331 atoms in group G1
group        G2 subtract all G1
223542 atoms in group G2

#define     temperature/pressure calculation  group
variable    x1atom atom "x>=0  &&  x<4 &&  z>-40 && z<1"     ##NEW!!!!!!!!!!!!
variable    x2atom atom "x>=-209.292  &&  x<-205.292 &&  z>-40 && z<1"
variable    x3atom atom "x>=0  &&  x<4 &&  z>-20 && z<1"
variable    x4atom atom "x>=-209.292  &&  x<-205.292 &&  z>-20 && z<1"
variable    x5atom atom "x>=196  &&  x<200 &&  z>-40 && z<1"

group       x1atom variable x1atom
144 atoms in group x1atom
group       x2atom variable x2atom
160 atoms in group x2atom
group       x3atom variable x3atom
70 atoms in group x3atom
group       x4atom variable x4atom
80 atoms in group x4atom
group       x5atom variable x5atom
160 atoms in group x5atom

compute      COM1x x1atom com
compute      COM2x x2atom com
compute      COM3x x3atom com
compute      COM4x x4atom com
compute      COM5x x5atom com

compute      COMall all com

#Temperature profile
#variable      Tprofile atom 300*(1+(step/5000)*2.5*exp(z/40))
variable      Tprofile atom 300*(1+(step/5000)*2.5*exp(z/75))

# ------------------------- SETTINGS ---------------------------------
thermo          100
thermo_style    custom step lx pxx pyy pzz temp c_COM1x[1] c_COM1x[2] c_COM1x[3] c_COM2x[1] c_COM2x[2] c_COM2x[3] c_COM3x[1] c_COM3x[2] c_COM3x[3] c_COM4x[1] c_COM4x[2] c_COM4x[3]  c_COM5x[1] c_COM5x[2] c_COM5x[3] c_COMall[1] c_COMall[2] c_COMall[3]

timestep       0.002

compute dispall all displace/atom
# ---------------- Run Laser Material Interaction --------------------
#dump          1 all custom 1000 dump/z1dump.atom id type x y z c_dispall[1]  c_dispall[2]  c_dispall[3] c_dispall[4]
#dump          2 all cfg 100 cfg/*.cfg mass type xs ys zs
#dump_modify   2 element Al

#relax for 2 PS
#fix           1 all nvt temp 300.0 300.0 0.1
#run  1000
#unfix         1

fix           1  all nve
fix           3temp  G1  langevin  v_Tprofile  0  0.1  378411   #TEST ALL
run           5000
Setting up Verlet run ...
  Unit style  : metal
  Current step: 0
  Time step   : 0.002
Step Lx Pxx Pyy Pzz Temp COM1x[1] COM1x[2] COM1x[3] COM2x[1] COM2x[2] COM2x[3] COM3x[1] COM3x[2] COM3x[3] COM4x[1] COM4x[2] COM4x[3] COM5x[1] COM5x[2] COM5x[3] COMall[1 COMall[2 COMall[3
0    421.55156    253.62268    219.08361   -129.10112    299.80826    1.6175971   -1.0673987   -20.107487   -207.72556   -1.0472388   -19.666294    1.6654355  -0.62928922   -10.318055   -207.74499    -1.015336   -9.4912431    197.65762  -0.95147423   -19.738191   -1.0156676   -1.0134181   -418.51991
Averages over the last 26 of 51 rows, steps 2500 to 5000:
Lx Pxx Pyy Pzz Temp COM1x[1] COM1x[2] COM1x[3] COM2x[1] COM2x[2] COM2x[3] COM3x[1] COM3x[2] COM3x[3] COM4x[1] COM4x[2] COM4x[3] COM5x[1] COM5x[2] COM5x[3] COMall[1 COMall[2 COMall[3
421.552 1319.97 1263.16 782.144 322.216 1.5627 -1.05933 -19.8041 -207.681 -1.10262 -19.6916 1.61273 -0.6217 -9.82625 -207.681 -1.09741 -9.52438 197.726 -1.09905 -19.6774 -1.01015 -1.02098 -418.488
Loop time of 29.6033 on 512 procs for 5000 steps with 346873 atoms

variable  com1_x equal "c_COM1x[1]"
variable  com1_y equal "c_COM1x[2]"
variable  com1_z equal "c_COM1x[3]"
variable  com2_x equal "c_COM2x[1]"
variable  com2_y equal "c_COM2x[2]"
variable  com2_z equal "c_COM2x[3]"
variable  com3_x equal "c_COM3x[1]"
variable  com3_y equal "c_COM3x[2]"
variable  com3_z equal "c_COM3x[3]"
variable  com4_x equal "c_COM4x[1]"
variable  com4_y equal "c_COM4x[2]"
variable  com4_z equal "c_COM4x[3]"
variable  com5_x equal "c_COM5x[1]"
variable  com5_y equal "c_COM5x[2]"
variable  com5_z equal "c_COM5x[3]"
variable  comall_x equal "c_COMall[1]"
variable  comall_y equal "c_COMall[2]"
variable  comall_z equal "c_COMall[3]"

#-------------------------- Wave Propagation -------------------------
unfix        3temp
run          1000000
Setting up Verlet run ...
  Unit style  : metal
  Current step: 5000
  Time step   : 0.002
Step Lx Pxx Pyy Pzz Temp COM1x[1] COM1x[2] COM1x[3] COM2x[1] COM2x[2] COM2x[3] COM3x[1] COM3x[2] COM3x[3] COM4x[1] COM4x[2] COM4x[3] COM5x[1] COM5x[2] COM5x[3] COMall[1 COMall[2 COMall[3
5000    421.55156    1561.4185    1468.5129    876.36218    330.75374    1.5946911  -0.90454793   -19.661166   -207.76923  -0.97716096   -19.511786    1.6287987  -0.52209511   -9.5682017   -207.73507  -0.98951029   -9.3138208    197.71327   -1.1005276   -19.424826    -1.012924   -1.0105267   -418.49103
Averages over the last 5001 of 10001 rows, steps 505000 to 1005000:
Lx Pxx Pyy Pzz Temp COM1x[1] COM1x[2] COM1x[3] COM2x[1] COM2x[2] COM2x[3] COM3x[1] COM3x[2] COM3x[3] COM4x[1] COM4x[2] COM4x[3] COM5x[1] COM5x[2] COM5x[3] COMall[1 COMall[2 COMall[3
421.552 1111.14 1087.87 -7.03325 330.75 -12.9765 1.84871 -34.8735 -222.291 1.76574 -34.501 -12.9314 2.22724 -25.0392 -222.292 1.76629 -24.3366 183.046 1.76549 -34.5012 -15.5689 1.76387 -433.942
Loop time of 5732.93 on 512 procs for 1000000 steps with 346873 atoms
