fission-0167
fission-0167
fission-0167
fission-0167
fission-0167
fission-0167
fission-0167
fission-0167
fission-0167
fission-0167
fission-0167
fission-0167
fission-0167
fission-0167
fission-0167
fission-0167
fission-0167
fission-0167
fission-0167
fission-0167
fission-0167
fission-0167
fission-0167
fission-0167
fission-0167
fission-0167
fission-0167
fission-0167
fission-0167
fission-0167
fission-0167
fission-0167
fission-0381
fission-0381
fission-0381
fission-0381
fission-0381
fission-0381
fission-0381
fission-0381
fission-0381
fission-0381
fission-0381
fission-0381
fission-0381
fission-0381
fission-0381
fission-0381
fission-0381
fission-0381
fission-0381
fission-0381
fission-0381
fission-0381
fission-0381
fission-0381
fission-0381
fission-0381
fission-0381
fission-0381
fission-0381
fission-0381
fission-0381
fission-0381
fission-0191
fission-0191
fission-0191
fission-0191
fission-0191
fission-0191
fission-0191
fission-0191
fission-0191
fission-0191
fission-0191
fission-0191
fission-0191
fission-0191
fission-0191
fission-0191
fission-0191
fission-0191
fission-0191
fission-0191
fission-0191
fission-0191
fission-0191
fission-0191
fission-0191
fission-0191
fission-0191
fission-0191
fission-0191
fission-0191
fission-0191
fission-0191
fission-0197
fission-0197
fission-0197
fission-0197
fission-0197
fission-0197
fission-0197
fission-0197
fission-0197
fission-0197
fission-0197
fission-0197
fission-0197
fission-0197
fission-0197
fission-0197
fission-0197
fission-0197
fission-0197
fission-0197
fission-0197
fission-0197
fission-0197
fission-0197
fission-0197
fission-0197
fission-0197
fission-0197
fission-0197
fission-0197
fission-0197
fission-0197
fission-0175
fission-0175
fission-0175
fission-0175
fission-0175
fission-0175
fission-0175
fission-0175
fission-0175
fission-0175
fission-0175
fission-0175
fission-0175
fission-0175
fission-0175
fission-0175
fission-0175
fission-0175
fission-0175
fission-0175
fission-0175
fission-0175
fission-0175
fission-0175
fission-0175
fission-0175
fission-0175
fission-0175
fission-0175
fission-0175
fission-0175
fission-0175
fission-0242
fission-0242
fission-0242
fission-0242
fission-0242
fission-0242
fission-0242
fission-0242
fission-0242
fission-0242
fission-0242
fission-0242
fission-0242
fission-0242
fission-0242
fission-0242
fission-0242
fission-0242
fission-0242
fission-0242
fission-0242
fission-0242
fission-0242
fission-0242
fission-0242
fission-0242
fission-0242
fission-0242
fission-0242
fission-0242
fission-0242
fission-0242
fission-0216
fission-0216
fission-0216
fission-0216
fission-0216
fission-0216
fission-0216
fission-0216
fission-0216
fission-0216
fission-0216
fission-0216
fission-0216
fission-0216
fission-0216
fission-0216
fission-0216
fission-0216
fission-0216
fission-0216
fission-0216
fission-0216
fission-0216
fission-0216
fission-0216
fission-0216
fission-0216
fission-0216
fission-0216
fission-0216
fission-0216
fission-0216
fission-0077
fission-0077
fission-0077
fission-0077
fission-0077
fission-0077
fission-0077
fission-0077
fission-0077
fission-0077
fission-0077
fission-0077
fission-0077
fission-0077
fission-0077
fission-0077
fission-0077
fission-0077
fission-0077
fission-0077
fission-0077
fission-0077
fission-0077
fission-0077
fission-0077
fission-0077
fission-0077
fission-0077
fission-0077
fission-0077
fission-0077
fission-0077
fission-0255
fission-0255
fission-0255
fission-0255
fission-0255
fission-0255
fission-0255
fission-0255
fission-0255
fission-0255
fission-0255
fission-0255
fission-0255
fission-0255
fission-0255
fission-0255
fission-0255
fission-0255
fission-0255
fission-0255
fission-0255
fission-0255
fission-0255
fission-0255
fission-0255
fission-0255
fission-0255
fission-0255
fission-0255
fission-0255
fission-0255
fission-0255
fission-0282
fission-0282
fission-0282
fission-0282
fission-0282
fission-0282
fission-0282
fission-0282
fission-0282
fission-0282
fission-0282
fission-0282
fission-0282
fission-0282
fission-0282
fission-0282
fission-0282
fission-0282
fission-0282
fission-0282
fission-0282
fission-0282
fission-0282
fission-0282
fission-0282
fission-0282
fission-0282
fission-0282
fission-0282
fission-0282
fission-0282
fission-0282
fission-0264
fission-0264
fission-0264
fission-0264
fission-0264
fission-0264
fission-0264
fission-0264
fission-0264
fission-0264
fission-0264
fission-0264
fission-0264
fission-0264
fission-0264
fission-0264
fission-0264
fission-0264
fission-0264
fission-0264
fission-0264
fission-0264
fission-0264
fission-0264
fission-0264
fission-0264
fission-0264
fission-0264
fission-0264
fission-0264
fission-0264
fission-0264
fission-0270
fission-0270
fission-0270
fission-0270
fission-0270
fission-0270
fission-0270
fission-0270
fission-0270
fission-0270
fission-0270
fission-0270
fission-0270
fission-0270
fission-0270
fission-0270
fission-0270
fission-0270
fission-0270
fission-0270
fission-0270
fission-0270
fission-0270
fission-0270
fission-0270
fission-0270
fission-0270
fission-0270
fission-0270
fission-0270
fission-0270
fission-0270
fission-0389
fission-0389
fission-0389
fission-0389
fission-0389
fission-0389
fission-0389
fission-0389
fission-0389
fission-0389
fission-0389
fission-0389
fission-0389
fission-0389
fission-0389
fission-0389
fission-0389
fission-0389
fission-0389
fission-0389
fission-0389
fission-0389
fission-0389
fission-0389
fission-0389
fission-0389
fission-0389
fission-0389
fission-0389
fission-0389
fission-0389
fission-0389
fission-0209
fission-0209
fission-0209
fission-0209
fission-0209
fission-0209
fission-0209
fission-0209
fission-0209
fission-0209
fission-0209
fission-0209
fission-0209
fission-0209
fission-0209
fission-0209
fission-0209
fission-0209
fission-0209
fission-0209
fission-0209
fission-0209
fission-0209
fission-0209
fission-0209
fission-0209
fission-0209
fission-0209
fission-0209
fission-0209
fission-0209
fission-0209
fission-0339
fission-0339
fission-0339
fission-0339
fission-0339
fission-0339
fission-0339
fission-0339
fission-0339
fission-0339
fission-0339
fission-0339
fission-0339
fission-0339
fission-0339
fission-0339
fission-0339
fission-0339
fission-0339
fission-0339
fission-0339
fission-0339
fission-0339
fission-0339
fission-0339
fission-0339
fission-0339
fission-0339
fission-0339
fission-0339
fission-0339
fission-0339
fission-0218
fission-0218
fission-0218
fission-0218
fission-0218
fission-0218
fission-0218
fission-0218
fission-0218
fission-0218
fission-0218
fission-0218
fission-0218
fission-0218
fission-0218
fission-0218
fission-0218
fission-0218
fission-0218
fission-0218
fission-0218
fission-0218
fission-0218
fission-0218
fission-0218
fission-0218
fission-0218
fission-0218
fission-0218
fission-0218
fission-0218
fission-0218

The following PBS extra args (PBS_EXTRA_ARGS) will be used: -P ldrd
The following lammps extra args (LAMMPS_EXTRA_ARGS) will be used:
LAMMPS (16 Feb 2016)
#log		log.c
units           metal
dimension       3
boundary        p p p
atom_style      atomic
shell         mkdir  cfg
shell         mkdir  dump

# ----------------------- ATOM DEFINITION & Force Field -------------
# ----------------------- ATOM DEFINITION ----------------------------
lattice         fcc 4.024845358 #origin 0.0 0.0 0.0 orient x 1 -1 0 orient y 1 1 -2 orient z 1 1 1
Lattice spacing in x,y,z = 4.02485 4.02485 4.02485
variable        Lx equal 52
variable        Ly equal 2
variable        Lz equal 208
variable        boxLZ equal 218
region          SYSTEM block -52 52 -2 2 -208 0 units lattice
region          BOX block -52 52 -2 2 -218 5 units lattice
create_box      1 BOX
Created orthogonal box = (-209.292 -8.04969 -877.416) to (209.292 8.04969 20.1242)
create_atoms    1 region SYSTEM
Created 346944 atoms

delete_atoms     porosity BOX 0.0005 7382    ##random seed <RAND1>
Deleted 195 atoms, new total = 346749

#---------------------------------------------------------------------------------
pair_style      eam/alloy
pair_coeff  	  * * Al_wkg_MSMSE_2009.set Al

#----------------------------------------------------------------------------------
velocity       all create 300.0 24242 mom yes rot yes dist gaussian         ##random seed <RAND2>

fix             1 all npt temp 300 300 0.1 iso 0.0 0.0 2
run      10000
  1 neighbor list requests
  update every 1 steps, delay 10 steps, check yes
Setting up Verlet run ...
  Unit style  : metal
  Current step: 0
  Time step   : 0.001
Step Temp E_pair E_mol TotEng Press Volume
0          300   -916571.77            0   -903125.56    2017.6436    6048473.6
Loop time of 62.6077 on 512 procs for 10000 steps with 346749 atoms

unfix 1

fix            2 all nvt temp 300.0 300.0 0.1

run      10000
Setting up Verlet run ...
  Unit style  : metal
  Current step: 10000
  Time step   : 0.001
Step Temp E_pair E_mol TotEng Press
10000    299.78616   -902518.49            0   -889081.86   -42.912827
Loop time of 59.1498 on 512 procs for 10000 steps with 346749 atoms

reset_timestep 0
unfix    2
#---------------------- DEFINE Laser GERION and GROUP ----------------
region       R1  block -75  75  INF  INF  INF  5  units box
group        G1 region R1
123317 atoms in group G1
group        G2 subtract all G1
223432 atoms in group G2

#define     temperature/pressure calculation  group
variable    x1atom atom "x>=0  &&  x<4 &&  z>-40 && z<1"     ##NEW!!!!!!!!!!!!
variable    x2atom atom "x>=-209.292  &&  x<-205.292 &&  z>-40 && z<1"
variable    x3atom atom "x>=0  &&  x<4 &&  z>-20 && z<1"
variable    x4atom atom "x>=-209.292  &&  x<-205.292 &&  z>-20 && z<1"
variable    x5atom atom "x>=196  &&  x<200 &&  z>-40 && z<1"

group       x1atom variable x1atom
137 atoms in group x1atom
group       x2atom variable x2atom
159 atoms in group x2atom
group       x3atom variable x3atom
67 atoms in group x3atom
group       x4atom variable x4atom
79 atoms in group x4atom
group       x5atom variable x5atom
160 atoms in group x5atom

compute      COM1x x1atom com
compute      COM2x x2atom com
compute      COM3x x3atom com
compute      COM4x x4atom com
compute      COM5x x5atom com

compute      COMall all com

#Temperature profile
#variable      Tprofile atom 300*(1+(step/5000)*2.5*exp(z/40))
variable      Tprofile atom 300*(1+(step/5000)*2.5*exp(z/75))

# ------------------------- SETTINGS ---------------------------------
thermo          100
thermo_style    custom step lx pxx pyy pzz temp c_COM1x[1] c_COM1x[2] c_COM1x[3] c_COM2x[1] c_COM2x[2] c_COM2x[3] c_COM3x[1] c_COM3x[2] c_COM3x[3] c_COM4x[1] c_COM4x[2] c_COM4x[3]  c_COM5x[1] c_COM5x[2] c_COM5x[3] c_COMall[1] c_COMall[2] c_COMall[3]

timestep       0.002

compute dispall all displace/atom
# ---------------- Run Laser Material Interaction --------------------
#dump          1 all custom 1000 dump/z1dump.atom id type x y z c_dispall[1]  c_dispall[2]  c_dispall[3] c_dispall[4]
#dump          2 all cfg 100 cfg/*.cfg mass type xs ys zs
#dump_modify   2 element Al

#relax for 2 PS
#fix           1 all nvt temp 300.0 300.0 0.1
#run  1000
#unfix         1

fix           1  all nve
fix           3temp  G1  langevin  v_Tprofile  0  0.1  378411   #TEST ALL
run           5000
Setting up Verlet run ...
  Unit style  : metal
  Current step: 0
  Time step   : 0.002
Step Lx Pxx Pyy Pzz Temp COM1x[1] COM1x[2] COM1x[3] COM2x[1] COM2x[2] COM2x[3] COM3x[1] COM3x[2] COM3x[3] COM4x[1] COM4x[2] COM4x[3] COM5x[1] COM5x[2] COM5x[3] COMall[1 COMall[2 COMall[3
0    421.62275    67.771026    55.847425   -95.007207     300.0424    2.3735045   -1.0008233   -20.081654   -207.86301   -1.0933678   -19.774461    2.2871932  -0.95377813    -9.960904    -207.8461   -1.1747163   -9.5861291    197.51793   -1.0340593   -19.707042   -1.0178977    -1.013525   -418.49936
Averages over the last 26 of 51 rows, steps 2500 to 5000:
Lx Pxx Pyy Pzz Temp COM1x[1] COM1x[2] COM1x[3] COM2x[1] COM2x[2] COM2x[3] COM3x[1] COM3x[2] COM3x[3] COM4x[1] COM4x[2] COM4x[3] COM5x[1] COM5x[2] COM5x[3] COMall[1 COMall[2 COMall[3
421.623 1133.9 1081.9 810.592 322.666 2.34307 -0.977089 -19.6959 -207.832 -1.11304 -19.9777 2.21955 -0.808925 -9.38182 -207.826 -1.13448 -9.75554 197.632 -1.0872 -19.8964 -1.01605 -1.02299 -418.527
Loop time of 31.2321 on 512 procs for 5000 steps with 346749 atoms

variable  com1_x equal "c_COM1x[1]"
variable  com1_y equal "c_COM1x[2]"
variable  com1_z equal "c_COM1x[3]"
variable  com2_x equal "c_COM2x[1]"
variable  com2_y equal "c_COM2x[2]"
variable  com2_z equal "c_COM2x[3]"
variable  com3_x equal "c_COM3x[1]"
variable  com3_y equal "c_COM3x[2]"
variable  com3_z equal "c_COM3x[3]"
variable  com4_x equal "c_COM4x[1]"
variable  com4_y equal "c_COM4x[2]"
variable  com4_z equal "c_COM4x[3]"
variable  com5_x equal "c_COM5x[1]"
variable  com5_y equal "c_COM5x[2]"
variable  com5_z equal "c_COM5x[3]"
variable  comall_x equal "c_COMall[1]"
variable  comall_y equal "c_COMall[2]"
variable  comall_z equal "c_COMall[3]"

#-------------------------- Wave Propagation -------------------------
unfix        3temp
run          1000000
Setting up Verlet run ...
  Unit style  : metal
  Current step: 5000
  Time step   : 0.002
Step Lx Pxx Pyy Pzz Temp COM1x[1] COM1x[2] COM1x[3] COM2x[1] COM2x[2] COM2x[3] COM3x[1] COM3x[2] COM3x[3] COM4x[1] COM4x[2] COM4x[3] COM5x[1] COM5x[2] COM5x[3] COMall[1 COMall[2 COMall[3
5000    421.62275    1411.0496    1378.9215    926.69627    331.48572    2.3737025  -0.97942727   -19.499393   -207.81014   -1.1179206   -19.856605    2.1713062  -0.77453188   -9.1080684    -207.7855   -1.1260065   -9.6089895    197.67446   -1.0867482   -19.766535   -1.0186274   -1.0133374   -418.53161
Averages over the last 5001 of 10001 rows, steps 505000 to 1005000:
Lx Pxx Pyy Pzz Temp COM1x[1] COM1x[2] COM1x[3] COM2x[1] COM2x[2] COM2x[3] COM3x[1] COM3x[2] COM3x[3] COM4x[1] COM4x[2] COM4x[3] COM5x[1] COM5x[2] COM5x[3] COMall[1 COMall[2 COMall[3
421.623 913.479 891.77 -7.68472 331.533 -10.2692 6.91349 -29.3756 -220.484 6.81368 -29.3301 -10.3668 7.05889 -19.2398 -220.48 6.79418 -19.1112 184.92 6.83332 -29.258 -13.7409 6.83215 -428.596
Loop time of 5910.01 on 512 procs for 1000000 steps with 346749 atoms
