fission-0222
fission-0222
fission-0222
fission-0222
fission-0222
fission-0222
fission-0222
fission-0222
fission-0222
fission-0222
fission-0222
fission-0222
fission-0222
fission-0222
fission-0222
fission-0222
fission-0222
fission-0222
fission-0222
fission-0222
fission-0222
fission-0222
fission-0222
fission-0222
fission-0222
fission-0222
fission-0222
fission-0222
fission-0222
fission-0222
fission-0222
fission-0222
fission-0224
fission-0224
fission-0224
fission-0224
fission-0224
fission-0224
fission-0224
fission-0224
fission-0224
fission-0224
fission-0224
fission-0224
fission-0224
fission-0224
fission-0224
fission-0224
fission-0224
fission-0224
fission-0224
fission-0224
fission-0224
fission-0224
fission-0224
fission-0224
fission-0224
fission-0224
fission-0224
fission-0224
fission-0224
fission-0224
fission-0224
fission-0224
fission-0278
fission-0278
fission-0278
fission-0278
fission-0278
fission-0278
fission-0278
fission-0278
fission-0278
fission-0278
fission-0278
fission-0278
fission-0278
fission-0278
fission-0278
fission-0278
fission-0278
fission-0278
fission-0278
fission-0278
fission-0278
fission-0278
fission-0278
fission-0278
fission-0278
fission-0278
fission-0278
fission-0278
fission-0278
fission-0278
fission-0278
fission-0278
fission-0085
fission-0085
fission-0085
fission-0085
fission-0085
fission-0085
fission-0085
fission-0085
fission-0085
fission-0085
fission-0085
fission-0085
fission-0085
fission-0085
fission-0085
fission-0085
fission-0085
fission-0085
fission-0085
fission-0085
fission-0085
fission-0085
fission-0085
fission-0085
fission-0085
fission-0085
fission-0085
fission-0085
fission-0085
fission-0085
fission-0085
fission-0085
fission-0145
fission-0145
fission-0145
fission-0145
fission-0145
fission-0145
fission-0145
fission-0145
fission-0145
fission-0145
fission-0145
fission-0145
fission-0145
fission-0145
fission-0145
fission-0145
fission-0145
fission-0145
fission-0145
fission-0145
fission-0145
fission-0145
fission-0145
fission-0145
fission-0145
fission-0145
fission-0145
fission-0145
fission-0145
fission-0145
fission-0145
fission-0145
fission-0244
fission-0244
fission-0244
fission-0244
fission-0244
fission-0244
fission-0244
fission-0244
fission-0244
fission-0244
fission-0244
fission-0244
fission-0244
fission-0244
fission-0244
fission-0244
fission-0244
fission-0244
fission-0244
fission-0244
fission-0244
fission-0244
fission-0244
fission-0244
fission-0244
fission-0244
fission-0244
fission-0244
fission-0244
fission-0244
fission-0244
fission-0244
fission-0107
fission-0107
fission-0107
fission-0107
fission-0107
fission-0107
fission-0107
fission-0107
fission-0107
fission-0107
fission-0107
fission-0107
fission-0107
fission-0107
fission-0107
fission-0107
fission-0107
fission-0107
fission-0107
fission-0107
fission-0107
fission-0107
fission-0107
fission-0107
fission-0107
fission-0107
fission-0107
fission-0107
fission-0107
fission-0107
fission-0107
fission-0107
fission-0269
fission-0269
fission-0269
fission-0269
fission-0269
fission-0269
fission-0269
fission-0269
fission-0269
fission-0269
fission-0269
fission-0269
fission-0269
fission-0269
fission-0269
fission-0269
fission-0269
fission-0269
fission-0269
fission-0269
fission-0269
fission-0269
fission-0269
fission-0269
fission-0269
fission-0269
fission-0269
fission-0269
fission-0269
fission-0269
fission-0269
fission-0269
fission-0225
fission-0225
fission-0225
fission-0225
fission-0225
fission-0225
fission-0225
fission-0225
fission-0225
fission-0225
fission-0225
fission-0225
fission-0225
fission-0225
fission-0225
fission-0225
fission-0225
fission-0225
fission-0225
fission-0225
fission-0225
fission-0225
fission-0225
fission-0225
fission-0225
fission-0225
fission-0225
fission-0225
fission-0225
fission-0225
fission-0225
fission-0225
fission-0229
fission-0229
fission-0229
fission-0229
fission-0229
fission-0229
fission-0229
fission-0229
fission-0229
fission-0229
fission-0229
fission-0229
fission-0229
fission-0229
fission-0229
fission-0229
fission-0229
fission-0229
fission-0229
fission-0229
fission-0229
fission-0229
fission-0229
fission-0229
fission-0229
fission-0229
fission-0229
fission-0229
fission-0229
fission-0229
fission-0229
fission-0229
fission-0231
fission-0231
fission-0231
fission-0231
fission-0231
fission-0231
fission-0231
fission-0231
fission-0231
fission-0231
fission-0231
fission-0231
fission-0231
fission-0231
fission-0231
fission-0231
fission-0231
fission-0231
fission-0231
fission-0231
fission-0231
fission-0231
fission-0231
fission-0231
fission-0231
fission-0231
fission-0231
fission-0231
fission-0231
fission-0231
fission-0231
fission-0231
fission-0307
fission-0307
fission-0307
fission-0307
fission-0307
fission-0307
fission-0307
fission-0307
fission-0307
fission-0307
fission-0307
fission-0307
fission-0307
fission-0307
fission-0307
fission-0307
fission-0307
fission-0307
fission-0307
fission-0307
fission-0307
fission-0307
fission-0307
fission-0307
fission-0307
fission-0307
fission-0307
fission-0307
fission-0307
fission-0307
fission-0307
fission-0307
fission-0304
fission-0304
fission-0304
fission-0304
fission-0304
fission-0304
fission-0304
fission-0304
fission-0304
fission-0304
fission-0304
fission-0304
fission-0304
fission-0304
fission-0304
fission-0304
fission-0304
fission-0304
fission-0304
fission-0304
fission-0304
fission-0304
fission-0304
fission-0304
fission-0304
fission-0304
fission-0304
fission-0304
fission-0304
fission-0304
fission-0304
fission-0304
fission-0305
fission-0305
fission-0305
fission-0305
fission-0305
fission-0305
fission-0305
fission-0305
fission-0305
fission-0305
fission-0305
fission-0305
fission-0305
fission-0305
fission-0305
fission-0305
fission-0305
fission-0305
fission-0305
fission-0305
fission-0305
fission-0305
fission-0305
fission-0305
fission-0305
fission-0305
fission-0305
fission-0305
fission-0305
fission-0305
fission-0305
fission-0305
fission-0356
fission-0356
fission-0356
fission-0356
fission-0356
fission-0356
fission-0356
fission-0356
fission-0356
fission-0356
fission-0356
fission-0356
fission-0356
fission-0356
fission-0356
fission-0356
fission-0356
fission-0356
fission-0356
fission-0356
fission-0356
fission-0356
fission-0356
fission-0356
fission-0356
fission-0356
fission-0356
fission-0356
fission-0356
fission-0356
fission-0356
fission-0356
fission-0268
fission-0268
fission-0268
fission-0268
fission-0268
fission-0268
fission-0268
fission-0268
fission-0268
fission-0268
fission-0268
fission-0268
fission-0268
fission-0268
fission-0268
fission-0268
fission-0268
fission-0268
fission-0268
fission-0268
fission-0268
fission-0268
fission-0268
fission-0268
fission-0268
fission-0268
fission-0268
fission-0268
fission-0268
fission-0268
fission-0268
fission-0268

The following PBS extra args (PBS_EXTRA_ARGS) will be used: -P ldrd
The following lammps extra args (LAMMPS_EXTRA_ARGS) will be used:
LAMMPS (16 Feb 2016)
#log		log.c
units           metal
dimension       3
boundary        p p p
atom_style      atomic
shell         mkdir  cfg
shell         mkdir  dump

# ----------------------- ATOM DEFINITION & Force Field -------------
# ----------------------- ATOM DEFINITION ----------------------------
lattice         fcc 4.024845358 #origin 0.0 0.0 0.0 orient x 1 -1 0 orient y 1 1 -2 orient z 1 1 1
Lattice spacing in x,y,z = 4.02485 4.02485 4.02485
variable        Lx equal 52
variable        Ly equal 2
variable        Lz equal 208
variable        boxLZ equal 218
region          SYSTEM block -52 52 -2 2 -208 0 units lattice
region          BOX block -52 52 -2 2 -218 5 units lattice
create_box      1 BOX
Created orthogonal box = (-209.292 -8.04969 -877.416) to (209.292 8.04969 20.1242)
create_atoms    1 region SYSTEM
Created 346944 atoms

delete_atoms     porosity BOX 0.0005 30740    ##random seed <RAND1>
Deleted 196 atoms, new total = 346748

#---------------------------------------------------------------------------------
pair_style      eam/alloy
pair_coeff  	  * * Al_wkg_MSMSE_2009.set Al

#----------------------------------------------------------------------------------
velocity       all create 300.0 12993 mom yes rot yes dist gaussian         ##random seed <RAND2>

fix             1 all npt temp 300 300 0.1 iso 0.0 0.0 2
run      10000
  1 neighbor list requests
  update every 1 steps, delay 10 steps, check yes
Setting up Verlet run ...
  Unit style  : metal
  Current step: 0
  Time step   : 0.001
Step Temp E_pair E_mol TotEng Press Volume
0          300   -916568.04            0   -903121.87    2017.0187    6048473.6
Loop time of 64.2498 on 512 procs for 10000 steps with 346748 atoms

unfix 1

fix            2 all nvt temp 300.0 300.0 0.1

run      10000
Setting up Verlet run ...
  Unit style  : metal
  Current step: 10000
  Time step   : 0.001
Step Temp E_pair E_mol TotEng Press
10000    299.79662   -902525.85            0    -889088.8    23.631919
Loop time of 62.0771 on 512 procs for 10000 steps with 346748 atoms

reset_timestep 0
unfix    2
#---------------------- DEFINE Laser GERION and GROUP ----------------
region       R1  block -75  75  INF  INF  INF  5  units box
group        G1 region R1
123518 atoms in group G1
group        G2 subtract all G1
223230 atoms in group G2

#define     temperature/pressure calculation  group
variable    x1atom atom "x>=0  &&  x<4 &&  z>-40 && z<1"     ##NEW!!!!!!!!!!!!
variable    x2atom atom "x>=-209.292  &&  x<-205.292 &&  z>-40 && z<1"
variable    x3atom atom "x>=0  &&  x<4 &&  z>-20 && z<1"
variable    x4atom atom "x>=-209.292  &&  x<-205.292 &&  z>-20 && z<1"
variable    x5atom atom "x>=196  &&  x<200 &&  z>-40 && z<1"

group       x1atom variable x1atom
155 atoms in group x1atom
group       x2atom variable x2atom
160 atoms in group x2atom
group       x3atom variable x3atom
79 atoms in group x3atom
group       x4atom variable x4atom
80 atoms in group x4atom
group       x5atom variable x5atom
160 atoms in group x5atom

compute      COM1x x1atom com
compute      COM2x x2atom com
compute      COM3x x3atom com
compute      COM4x x4atom com
compute      COM5x x5atom com

compute      COMall all com

#Temperature profile
#variable      Tprofile atom 300*(1+(step/5000)*2.5*exp(z/40))
variable      Tprofile atom 300*(1+(step/5000)*2.5*exp(z/75))

# ------------------------- SETTINGS ---------------------------------
thermo          100
thermo_style    custom step lx pxx pyy pzz temp c_COM1x[1] c_COM1x[2] c_COM1x[3] c_COM2x[1] c_COM2x[2] c_COM2x[3] c_COM3x[1] c_COM3x[2] c_COM3x[3] c_COM4x[1] c_COM4x[2] c_COM4x[3]  c_COM5x[1] c_COM5x[2] c_COM5x[3] c_COMall[1] c_COMall[2] c_COMall[3]

timestep       0.002

compute dispall all displace/atom
# ---------------- Run Laser Material Interaction --------------------
#dump          1 all custom 1000 dump/z1dump.atom id type x y z c_dispall[1]  c_dispall[2]  c_dispall[3] c_dispall[4]
#dump          2 all cfg 100 cfg/*.cfg mass type xs ys zs
#dump_modify   2 element Al

#relax for 2 PS
#fix           1 all nvt temp 300.0 300.0 0.1
#run  1000
#unfix         1

fix           1  all nve
fix           3temp  G1  langevin  v_Tprofile  0  0.1  378411   #TEST ALL
run           5000
Setting up Verlet run ...
  Unit style  : metal
  Current step: 0
  Time step   : 0.002
Step Lx Pxx Pyy Pzz Temp COM1x[1] COM1x[2] COM1x[3] COM2x[1] COM2x[2] COM2x[3] COM3x[1] COM3x[2] COM3x[3] COM4x[1] COM4x[2] COM4x[3] COM5x[1] COM5x[2] COM5x[3] COMall[1 COMall[2 COMall[3
0    421.52313    219.43698    212.60553   -215.27615    299.45135    2.4741781   -1.1747647   -19.419394   -207.89051  -0.97428848   -19.634851    2.4266682   -1.2274484   -9.3225773   -207.91225    -0.980475   -9.5086673    197.43189   -0.9516561   -19.658365   -1.0141476   -1.0139547    -418.5148
Averages over the last 26 of 51 rows, steps 2500 to 5000:
Lx Pxx Pyy Pzz Temp COM1x[1] COM1x[2] COM1x[3] COM2x[1] COM2x[2] COM2x[3] COM3x[1] COM3x[2] COM3x[3] COM4x[1] COM4x[2] COM4x[3] COM5x[1] COM5x[2] COM5x[3] COMall[1 COMall[2 COMall[3
421.523 1329.15 1275.03 772.953 322.169 2.41255 -1.13506 -19.1165 -207.854 -1.04923 -19.8215 2.3559 -1.16136 -8.87121 -207.856 -1.04811 -9.64974 197.535 -1.04475 -19.8194 -1.00841 -1.01069 -418.559
Loop time of 31.7146 on 512 procs for 5000 steps with 346748 atoms

variable  com1_x equal "c_COM1x[1]"
variable  com1_y equal "c_COM1x[2]"
variable  com1_z equal "c_COM1x[3]"
variable  com2_x equal "c_COM2x[1]"
variable  com2_y equal "c_COM2x[2]"
variable  com2_z equal "c_COM2x[3]"
variable  com3_x equal "c_COM3x[1]"
variable  com3_y equal "c_COM3x[2]"
variable  com3_z equal "c_COM3x[3]"
variable  com4_x equal "c_COM4x[1]"
variable  com4_y equal "c_COM4x[2]"
variable  com4_z equal "c_COM4x[3]"
variable  com5_x equal "c_COM5x[1]"
variable  com5_y equal "c_COM5x[2]"
variable  com5_z equal "c_COM5x[3]"
variable  comall_x equal "c_COMall[1]"
variable  comall_y equal "c_COMall[2]"
variable  comall_z equal "c_COMall[3]"

#-------------------------- Wave Propagation -------------------------
unfix        3temp
run          1000000
Setting up Verlet run ...
  Unit style  : metal
  Current step: 5000
  Time step   : 0.002
Step Lx Pxx Pyy Pzz Temp COM1x[1] COM1x[2] COM1x[3] COM2x[1] COM2x[2] COM2x[3] COM3x[1] COM3x[2] COM3x[3] COM4x[1] COM4x[2] COM4x[3] COM5x[1] COM5x[2] COM5x[3] COMall[1 COMall[2 COMall[3
5000    421.52313    1613.2952    1539.1134    915.00982    330.59036    2.3883563   -1.1173759   -18.947768    -207.9395   -1.1496274   -19.614207    2.2810292    -1.239297   -8.6841876   -207.93483   -1.1445564   -9.4578151    197.53076   -1.1645445   -19.653608   -1.0090789   -1.0066863   -418.57378
Averages over the last 5001 of 10001 rows, steps 505000 to 1005000:
Lx Pxx Pyy Pzz Temp COM1x[1] COM1x[2] COM1x[3] COM2x[1] COM2x[2] COM2x[3] COM3x[1] COM3x[2] COM3x[3] COM4x[1] COM4x[2] COM4x[3] COM5x[1] COM5x[2] COM5x[3] COMall[1 COMall[2 COMall[3
421.523 1127.57 1105.22 -7.33915 331.07 -10.5248 -0.171723 -36.7648 -220.809 -0.0483356 -37.1445 -10.5722 -0.239766 -26.6648 -220.808 -0.0482453 -26.9798 184.499 -0.0485516 -37.1445 -14.1021 -0.0490247 -436.577
Loop time of 5804.94 on 512 procs for 1000000 steps with 346748 atoms
