fission-0183
fission-0183
fission-0183
fission-0183
fission-0183
fission-0183
fission-0183
fission-0183
fission-0183
fission-0183
fission-0183
fission-0183
fission-0183
fission-0183
fission-0183
fission-0183
fission-0183
fission-0183
fission-0183
fission-0183
fission-0183
fission-0183
fission-0183
fission-0183
fission-0183
fission-0183
fission-0183
fission-0183
fission-0183
fission-0183
fission-0183
fission-0183
fission-0179
fission-0179
fission-0179
fission-0179
fission-0179
fission-0179
fission-0179
fission-0179
fission-0179
fission-0179
fission-0179
fission-0179
fission-0179
fission-0179
fission-0179
fission-0179
fission-0179
fission-0179
fission-0179
fission-0179
fission-0179
fission-0179
fission-0179
fission-0179
fission-0179
fission-0179
fission-0179
fission-0179
fission-0179
fission-0179
fission-0179
fission-0179
fission-0188
fission-0188
fission-0188
fission-0188
fission-0188
fission-0188
fission-0188
fission-0188
fission-0188
fission-0188
fission-0188
fission-0188
fission-0188
fission-0188
fission-0188
fission-0188
fission-0188
fission-0188
fission-0188
fission-0188
fission-0188
fission-0188
fission-0188
fission-0188
fission-0188
fission-0188
fission-0188
fission-0188
fission-0188
fission-0188
fission-0188
fission-0188
fission-0195
fission-0195
fission-0195
fission-0195
fission-0195
fission-0195
fission-0195
fission-0195
fission-0195
fission-0195
fission-0195
fission-0195
fission-0195
fission-0195
fission-0195
fission-0195
fission-0195
fission-0195
fission-0195
fission-0195
fission-0195
fission-0195
fission-0195
fission-0195
fission-0195
fission-0195
fission-0195
fission-0195
fission-0195
fission-0195
fission-0195
fission-0195
fission-0172
fission-0172
fission-0172
fission-0172
fission-0172
fission-0172
fission-0172
fission-0172
fission-0172
fission-0172
fission-0172
fission-0172
fission-0172
fission-0172
fission-0172
fission-0172
fission-0172
fission-0172
fission-0172
fission-0172
fission-0172
fission-0172
fission-0172
fission-0172
fission-0172
fission-0172
fission-0172
fission-0172
fission-0172
fission-0172
fission-0172
fission-0172
fission-0190
fission-0190
fission-0190
fission-0190
fission-0190
fission-0190
fission-0190
fission-0190
fission-0190
fission-0190
fission-0190
fission-0190
fission-0190
fission-0190
fission-0190
fission-0190
fission-0190
fission-0190
fission-0190
fission-0190
fission-0190
fission-0190
fission-0190
fission-0190
fission-0190
fission-0190
fission-0190
fission-0190
fission-0190
fission-0190
fission-0190
fission-0190
fission-0173
fission-0173
fission-0173
fission-0173
fission-0173
fission-0173
fission-0173
fission-0173
fission-0173
fission-0173
fission-0173
fission-0173
fission-0173
fission-0173
fission-0173
fission-0173
fission-0173
fission-0173
fission-0173
fission-0173
fission-0173
fission-0173
fission-0173
fission-0173
fission-0173
fission-0173
fission-0173
fission-0173
fission-0173
fission-0173
fission-0173
fission-0173
fission-0171
fission-0171
fission-0171
fission-0171
fission-0171
fission-0171
fission-0171
fission-0171
fission-0171
fission-0171
fission-0171
fission-0171
fission-0171
fission-0171
fission-0171
fission-0171
fission-0171
fission-0171
fission-0171
fission-0171
fission-0171
fission-0171
fission-0171
fission-0171
fission-0171
fission-0171
fission-0171
fission-0171
fission-0171
fission-0171
fission-0171
fission-0171
fission-0180
fission-0180
fission-0180
fission-0180
fission-0180
fission-0180
fission-0180
fission-0180
fission-0180
fission-0180
fission-0180
fission-0180
fission-0180
fission-0180
fission-0180
fission-0180
fission-0180
fission-0180
fission-0180
fission-0180
fission-0180
fission-0180
fission-0180
fission-0180
fission-0180
fission-0180
fission-0180
fission-0180
fission-0180
fission-0180
fission-0180
fission-0180
fission-0181
fission-0181
fission-0181
fission-0181
fission-0181
fission-0181
fission-0181
fission-0181
fission-0181
fission-0181
fission-0181
fission-0181
fission-0181
fission-0181
fission-0181
fission-0181
fission-0181
fission-0181
fission-0181
fission-0181
fission-0181
fission-0181
fission-0181
fission-0181
fission-0181
fission-0181
fission-0181
fission-0181
fission-0181
fission-0181
fission-0181
fission-0181
fission-0187
fission-0187
fission-0187
fission-0187
fission-0187
fission-0187
fission-0187
fission-0187
fission-0187
fission-0187
fission-0187
fission-0187
fission-0187
fission-0187
fission-0187
fission-0187
fission-0187
fission-0187
fission-0187
fission-0187
fission-0187
fission-0187
fission-0187
fission-0187
fission-0187
fission-0187
fission-0187
fission-0187
fission-0187
fission-0187
fission-0187
fission-0187
fission-0186
fission-0186
fission-0186
fission-0186
fission-0186
fission-0186
fission-0186
fission-0186
fission-0186
fission-0186
fission-0186
fission-0186
fission-0186
fission-0186
fission-0186
fission-0186
fission-0186
fission-0186
fission-0186
fission-0186
fission-0186
fission-0186
fission-0186
fission-0186
fission-0186
fission-0186
fission-0186
fission-0186
fission-0186
fission-0186
fission-0186
fission-0186
fission-0189
fission-0189
fission-0189
fission-0189
fission-0189
fission-0189
fission-0189
fission-0189
fission-0189
fission-0189
fission-0189
fission-0189
fission-0189
fission-0189
fission-0189
fission-0189
fission-0189
fission-0189
fission-0189
fission-0189
fission-0189
fission-0189
fission-0189
fission-0189
fission-0189
fission-0189
fission-0189
fission-0189
fission-0189
fission-0189
fission-0189
fission-0189
fission-0194
fission-0194
fission-0194
fission-0194
fission-0194
fission-0194
fission-0194
fission-0194
fission-0194
fission-0194
fission-0194
fission-0194
fission-0194
fission-0194
fission-0194
fission-0194
fission-0194
fission-0194
fission-0194
fission-0194
fission-0194
fission-0194
fission-0194
fission-0194
fission-0194
fission-0194
fission-0194
fission-0194
fission-0194
fission-0194
fission-0194
fission-0194
fission-0170
fission-0170
fission-0170
fission-0170
fission-0170
fission-0170
fission-0170
fission-0170
fission-0170
fission-0170
fission-0170
fission-0170
fission-0170
fission-0170
fission-0170
fission-0170
fission-0170
fission-0170
fission-0170
fission-0170
fission-0170
fission-0170
fission-0170
fission-0170
fission-0170
fission-0170
fission-0170
fission-0170
fission-0170
fission-0170
fission-0170
fission-0170
fission-0193
fission-0193
fission-0193
fission-0193
fission-0193
fission-0193
fission-0193
fission-0193
fission-0193
fission-0193
fission-0193
fission-0193
fission-0193
fission-0193
fission-0193
fission-0193
fission-0193
fission-0193
fission-0193
fission-0193
fission-0193
fission-0193
fission-0193
fission-0193
fission-0193
fission-0193
fission-0193
fission-0193
fission-0193
fission-0193
fission-0193
fission-0193

The following PBS extra args (PBS_EXTRA_ARGS) will be used: -P ldrd
The following lammps extra args (LAMMPS_EXTRA_ARGS) will be used:
LAMMPS (16 Feb 2016)
#log		log.c
units           metal
dimension       3
boundary        p p p
atom_style      atomic
shell         mkdir  cfg
shell         mkdir  dump

# ----------------------- ATOM DEFINITION & Force Field -------------
lattice         fcc 3.615 #origin 0.0 0.0 0.0 orient x 1 -1 0 orient y 1 1 -2 orient z 1 1 1
Lattice spacing in x,y,z = 3.615 3.615 3.615
variable        Lx equal 65
variable        Ly equal 3
variable        Lz equal 260
variable        boxLZ equal 270
region          SYSTEM block -65 65 -3 3 -260 0 units lattice
region          BOX block -65 65 -3 3 -270 5 units lattice
create_box      1 BOX
Created orthogonal box = (-234.975 -10.845 -976.05) to (234.975 10.845 18.075)
create_atoms    1 region SYSTEM
Created 812760 atoms

delete_atoms     porosity BOX 0.0005 14038
Deleted 410 atoms, new total = 812350

#---------------------------------------------------------------------

pair_style      eam/alloy
pair_coeff  	  * * Cu01.eam.alloy Cu

#----------------------------------------------------------------------
velocity       all create 300.0 15965 mom yes rot yes dist gaussian
fix             1 all npt temp 300 300 0.1 iso 0.0 0.0 2
run      10000
  1 neighbor list requests
  update every 1 steps, delay 10 steps, check yes
Setting up Verlet run ...
  Unit style  : metal
  Current step: 0
  Time step   : 0.001
Step Temp E_pair E_mol TotEng Press Volume
0          300   -2873463.9            0   -2841962.6    2846.1772     10133330
Loop time of 131.822 on 512 procs for 10000 steps with 812350 atoms

unfix 1

fix            2 all nvt temp 300.0 300.0 0.1

run      10000
Setting up Verlet run ...
  Unit style  : metal
  Current step: 10000
  Time step   : 0.001
Step Temp E_pair E_mol TotEng Press
10000     300.0373     -2841336            0   -2809830.8   -2.9122219
Loop time of 122.687 on 512 procs for 10000 steps with 812350 atoms

reset_timestep 0
unfix    2
#---------------------- DEFINE Laser GERION and GROUP ----------------
region       R1  block -75  75  INF  INF  INF  5  units box
group        G1 region R1
259332 atoms in group G1
group        G2 subtract all G1
553018 atoms in group G2

#define     temperature/pressure calculation  group
variable    x1atom atom "x>=0  &&  x<4 &&  z>-40 && z<1"     ##NEW!!!!!!!!!!!!
variable    x2atom atom "x>=-234.98  &&  x<-230.98 &&  z>-40 && z<1"
variable    x3atom atom "x>=0  &&  x<4 &&  z>-20 && z<1"
variable    x4atom atom "x>=-234.98  &&  x<-230.98 &&  z>-20 && z<1"
variable    x5atom atom "x>=196  &&  x<200 &&  z>-40 && z<1"

group       x1atom variable x1atom
326 atoms in group x1atom
group       x2atom variable x2atom
276 atoms in group x2atom
group       x3atom variable x3atom
173 atoms in group x3atom
group       x4atom variable x4atom
144 atoms in group x4atom
group       x5atom variable x5atom
392 atoms in group x5atom

compute      COM1x x1atom com
compute      COM2x x2atom com
compute      COM3x x3atom com
compute      COM4x x4atom com
compute      COM5x x5atom com

compute      COMall all com

#Temperature profile
#variable      Tprofile atom 300*(1+(step/5000)*2.5*exp(z/40))
#variable tmp equal "lz"
variable      Tprofile atom  300+600*(step/5000)*exp(z/40)*exp(-x*x/1289)

# ------------------------- SETTINGS ---------------------------------
thermo          100
thermo_style    custom step lx pxx pyy pzz temp c_COM1x[1] c_COM1x[2] c_COM1x[3] c_COM2x[1] c_COM2x[2] c_COM2x[3] c_COM3x[1] c_COM3x[2] c_COM3x[3] c_COM4x[1] c_COM4x[2] c_COM4x[3]  c_COM5x[1] c_COM5x[2] c_COM5x[3] c_COMall[1] c_COMall[2] c_COMall[3]

timestep       0.002

compute dispall all displace/atom
# ---------------- Run Laser Material Interaction --------------------
#dump          1 all custom 1000 dump/z1dump.atom id type x y z c_dispall[1]  c_dispall[2]  c_dispall[3] c_dispall[4]
#dump          2 all cfg 100 cfg/*.cfg mass type xs ys zs
#dump_modify   2 element Al

#relax for 2 PS
#fix           1 all nvt temp 300.0 300.0 0.1
#run  1000
#unfix         1

fix           1  all nve
fix           3temp  all  langevin  v_Tprofile  0  0.1  378411   #TEST ALL
run           5000
Setting up Verlet run ...
  Unit style  : metal
  Current step: 0
  Time step   : 0.002
Step Lx Pxx Pyy Pzz Temp COM1x[1] COM1x[2] COM1x[3] COM2x[1] COM2x[2] COM2x[3] COM3x[1] COM3x[2] COM3x[3] COM4x[1] COM4x[2] COM4x[3] COM5x[1] COM5x[2] COM5x[3] COMall[1 COMall[2 COMall[3
0    472.07906   -370.85663   -371.08062   -258.69178    299.92092     2.282813   -1.1883214   -19.313168   -233.28798    -0.917695   -19.326486    2.2396827   -1.0707644   -9.5840262   -233.30252  -0.91570829   -9.3357556    198.00679  -0.91082284   -19.142276  -0.90473756  -0.90803434   -469.91619
Averages over the last 26 of 51 rows, steps 2500 to 5000:
Lx Pxx Pyy Pzz Temp COM1x[1] COM1x[2] COM1x[3] COM2x[1] COM2x[2] COM2x[3] COM3x[1] COM3x[2] COM3x[3] COM4x[1] COM4x[2] COM4x[3] COM5x[1] COM5x[2] COM5x[3] COMall[1 COMall[2 COMall[3
472.079 -254.488 -247.803 -162.383 302.753 2.32414 -1.17081 -19.248 -233.316 -0.937082 -19.3609 2.27496 -1.06154 -9.45806 -233.331 -0.94137 -9.3711 197.995 -0.845348 -19.1478 -0.906357 -0.90775 -469.917
Loop time of 65.4972 on 512 procs for 5000 steps with 812350 atoms

variable  com1_x equal "c_COM1x[1]"
variable  com1_y equal "c_COM1x[2]"
variable  com1_z equal "c_COM1x[3]"
variable  com2_x equal "c_COM2x[1]"
variable  com2_y equal "c_COM2x[2]"
variable  com2_z equal "c_COM2x[3]"
variable  com3_x equal "c_COM3x[1]"
variable  com3_y equal "c_COM3x[2]"
variable  com3_z equal "c_COM3x[3]"
variable  com4_x equal "c_COM4x[1]"
variable  com4_y equal "c_COM4x[2]"
variable  com4_z equal "c_COM4x[3]"
variable  com5_x equal "c_COM5x[1]"
variable  com5_y equal "c_COM5x[2]"
variable  com5_z equal "c_COM5x[3]"
variable  comall_x equal "c_COMall[1]"
variable  comall_y equal "c_COMall[2]"
variable  comall_z equal "c_COMall[3]"

#-------------------------- Wave Propagation -------------------------
unfix        3temp
run          1000000
Setting up Verlet run ...
  Unit style  : metal
  Current step: 5000
  Time step   : 0.002
Step Lx Pxx Pyy Pzz Temp COM1x[1] COM1x[2] COM1x[3] COM2x[1] COM2x[2] COM2x[3] COM3x[1] COM3x[2] COM3x[3] COM4x[1] COM4x[2] COM4x[3] COM5x[1] COM5x[2] COM5x[3] COMall[1 COMall[2 COMall[3
5000    472.07906   -143.94998   -143.63568   -60.149205    303.70461    2.3190619   -1.1983898   -19.199406   -233.29979  -0.93377045   -19.358115    2.2530517   -1.0860839   -9.3712332   -233.31678  -0.91835626   -9.3550343    197.99134  -0.85942824   -19.156472  -0.90578968  -0.90947442   -469.91987
Averages over the last 5001 of 10001 rows, steps 505000 to 1005000:
Lx Pxx Pyy Pzz Temp COM1x[1] COM1x[2] COM1x[3] COM2x[1] COM2x[2] COM2x[3] COM3x[1] COM3x[2] COM3x[3] COM4x[1] COM4x[2] COM4x[3] COM5x[1] COM5x[2] COM5x[3] COMall[1 COMall[2 COMall[3
472.079 -119.334 -111.35 -4.19032 303.963 5.21064 -2.98764 -22.4562 -230.413 -2.80968 -22.5848 5.172 -2.87745 -12.7044 -230.412 -2.80964 -12.5943 200.91 -2.78186 -22.2977 1.9994 -2.8097 -473.066
Loop time of 12377 on 512 procs for 1000000 steps with 812350 atoms
