fission-0090
fission-0090
fission-0090
fission-0090
fission-0090
fission-0090
fission-0090
fission-0090
fission-0090
fission-0090
fission-0090
fission-0090
fission-0090
fission-0090
fission-0090
fission-0090
fission-0090
fission-0090
fission-0090
fission-0090
fission-0090
fission-0090
fission-0090
fission-0090
fission-0090
fission-0090
fission-0090
fission-0090
fission-0090
fission-0090
fission-0090
fission-0090
fission-0280
fission-0280
fission-0280
fission-0280
fission-0280
fission-0280
fission-0280
fission-0280
fission-0280
fission-0280
fission-0280
fission-0280
fission-0280
fission-0280
fission-0280
fission-0280
fission-0280
fission-0280
fission-0280
fission-0280
fission-0280
fission-0280
fission-0280
fission-0280
fission-0280
fission-0280
fission-0280
fission-0280
fission-0280
fission-0280
fission-0280
fission-0280
fission-0075
fission-0075
fission-0075
fission-0075
fission-0075
fission-0075
fission-0075
fission-0075
fission-0075
fission-0075
fission-0075
fission-0075
fission-0075
fission-0075
fission-0075
fission-0075
fission-0075
fission-0075
fission-0075
fission-0075
fission-0075
fission-0075
fission-0075
fission-0075
fission-0075
fission-0075
fission-0075
fission-0075
fission-0075
fission-0075
fission-0075
fission-0075
fission-0150
fission-0150
fission-0150
fission-0150
fission-0150
fission-0150
fission-0150
fission-0150
fission-0150
fission-0150
fission-0150
fission-0150
fission-0150
fission-0150
fission-0150
fission-0150
fission-0150
fission-0150
fission-0150
fission-0150
fission-0150
fission-0150
fission-0150
fission-0150
fission-0150
fission-0150
fission-0150
fission-0150
fission-0150
fission-0150
fission-0150
fission-0150
fission-0202
fission-0202
fission-0202
fission-0202
fission-0202
fission-0202
fission-0202
fission-0202
fission-0202
fission-0202
fission-0202
fission-0202
fission-0202
fission-0202
fission-0202
fission-0202
fission-0202
fission-0202
fission-0202
fission-0202
fission-0202
fission-0202
fission-0202
fission-0202
fission-0202
fission-0202
fission-0202
fission-0202
fission-0202
fission-0202
fission-0202
fission-0202
fission-0029
fission-0029
fission-0029
fission-0029
fission-0029
fission-0029
fission-0029
fission-0029
fission-0029
fission-0029
fission-0029
fission-0029
fission-0029
fission-0029
fission-0029
fission-0029
fission-0029
fission-0029
fission-0029
fission-0029
fission-0029
fission-0029
fission-0029
fission-0029
fission-0029
fission-0029
fission-0029
fission-0029
fission-0029
fission-0029
fission-0029
fission-0029
fission-0051
fission-0051
fission-0051
fission-0051
fission-0051
fission-0051
fission-0051
fission-0051
fission-0051
fission-0051
fission-0051
fission-0051
fission-0051
fission-0051
fission-0051
fission-0051
fission-0051
fission-0051
fission-0051
fission-0051
fission-0051
fission-0051
fission-0051
fission-0051
fission-0051
fission-0051
fission-0051
fission-0051
fission-0051
fission-0051
fission-0051
fission-0051
fission-0177
fission-0177
fission-0177
fission-0177
fission-0177
fission-0177
fission-0177
fission-0177
fission-0177
fission-0177
fission-0177
fission-0177
fission-0177
fission-0177
fission-0177
fission-0177
fission-0177
fission-0177
fission-0177
fission-0177
fission-0177
fission-0177
fission-0177
fission-0177
fission-0177
fission-0177
fission-0177
fission-0177
fission-0177
fission-0177
fission-0177
fission-0177
fission-0292
fission-0292
fission-0292
fission-0292
fission-0292
fission-0292
fission-0292
fission-0292
fission-0292
fission-0292
fission-0292
fission-0292
fission-0292
fission-0292
fission-0292
fission-0292
fission-0292
fission-0292
fission-0292
fission-0292
fission-0292
fission-0292
fission-0292
fission-0292
fission-0292
fission-0292
fission-0292
fission-0292
fission-0292
fission-0292
fission-0292
fission-0292
fission-0184
fission-0184
fission-0184
fission-0184
fission-0184
fission-0184
fission-0184
fission-0184
fission-0184
fission-0184
fission-0184
fission-0184
fission-0184
fission-0184
fission-0184
fission-0184
fission-0184
fission-0184
fission-0184
fission-0184
fission-0184
fission-0184
fission-0184
fission-0184
fission-0184
fission-0184
fission-0184
fission-0184
fission-0184
fission-0184
fission-0184
fission-0184
fission-0281
fission-0281
fission-0281
fission-0281
fission-0281
fission-0281
fission-0281
fission-0281
fission-0281
fission-0281
fission-0281
fission-0281
fission-0281
fission-0281
fission-0281
fission-0281
fission-0281
fission-0281
fission-0281
fission-0281
fission-0281
fission-0281
fission-0281
fission-0281
fission-0281
fission-0281
fission-0281
fission-0281
fission-0281
fission-0281
fission-0281
fission-0281
fission-0243
fission-0243
fission-0243
fission-0243
fission-0243
fission-0243
fission-0243
fission-0243
fission-0243
fission-0243
fission-0243
fission-0243
fission-0243
fission-0243
fission-0243
fission-0243
fission-0243
fission-0243
fission-0243
fission-0243
fission-0243
fission-0243
fission-0243
fission-0243
fission-0243
fission-0243
fission-0243
fission-0243
fission-0243
fission-0243
fission-0243
fission-0243
fission-0259
fission-0259
fission-0259
fission-0259
fission-0259
fission-0259
fission-0259
fission-0259
fission-0259
fission-0259
fission-0259
fission-0259
fission-0259
fission-0259
fission-0259
fission-0259
fission-0259
fission-0259
fission-0259
fission-0259
fission-0259
fission-0259
fission-0259
fission-0259
fission-0259
fission-0259
fission-0259
fission-0259
fission-0259
fission-0259
fission-0259
fission-0259
fission-0207
fission-0207
fission-0207
fission-0207
fission-0207
fission-0207
fission-0207
fission-0207
fission-0207
fission-0207
fission-0207
fission-0207
fission-0207
fission-0207
fission-0207
fission-0207
fission-0207
fission-0207
fission-0207
fission-0207
fission-0207
fission-0207
fission-0207
fission-0207
fission-0207
fission-0207
fission-0207
fission-0207
fission-0207
fission-0207
fission-0207
fission-0207
fission-0036
fission-0036
fission-0036
fission-0036
fission-0036
fission-0036
fission-0036
fission-0036
fission-0036
fission-0036
fission-0036
fission-0036
fission-0036
fission-0036
fission-0036
fission-0036
fission-0036
fission-0036
fission-0036
fission-0036
fission-0036
fission-0036
fission-0036
fission-0036
fission-0036
fission-0036
fission-0036
fission-0036
fission-0036
fission-0036
fission-0036
fission-0036
fission-0268
fission-0268
fission-0268
fission-0268
fission-0268
fission-0268
fission-0268
fission-0268
fission-0268
fission-0268
fission-0268
fission-0268
fission-0268
fission-0268
fission-0268
fission-0268
fission-0268
fission-0268
fission-0268
fission-0268
fission-0268
fission-0268
fission-0268
fission-0268
fission-0268
fission-0268
fission-0268
fission-0268
fission-0268
fission-0268
fission-0268
fission-0268

The following PBS extra args (PBS_EXTRA_ARGS) will be used: -P ldrd
The following lammps extra args (LAMMPS_EXTRA_ARGS) will be used:
LAMMPS (16 Feb 2016)
#log		log.c
units           metal
dimension       3
boundary        p p p
atom_style      atomic
shell         mkdir  cfg
shell         mkdir  dump

# ----------------------- ATOM DEFINITION & Force Field -------------
lattice         fcc 3.615 #origin 0.0 0.0 0.0 orient x 1 -1 0 orient y 1 1 -2 orient z 1 1 1
Lattice spacing in x,y,z = 3.615 3.615 3.615
variable        Lx equal 65
variable        Ly equal 3
variable        Lz equal 260
variable        boxLZ equal 270
region          SYSTEM block -65 65 -3 3 -260 0 units lattice
region          BOX block -65 65 -3 3 -270 5 units lattice
create_box      1 BOX
Created orthogonal box = (-234.975 -10.845 -976.05) to (234.975 10.845 18.075)
create_atoms    1 region SYSTEM
Created 812760 atoms

delete_atoms     porosity BOX 0.0005 19432
Deleted 429 atoms, new total = 812331

#---------------------------------------------------------------------

pair_style      eam/alloy
pair_coeff  	  * * Cu01.eam.alloy Cu

#----------------------------------------------------------------------
velocity       all create 300.0 4411 mom yes rot yes dist gaussian
fix             1 all npt temp 300 300 0.1 iso 0.0 0.0 2
run      10000
  1 neighbor list requests
  update every 1 steps, delay 10 steps, check yes
Setting up Verlet run ...
  Unit style  : metal
  Current step: 0
  Time step   : 0.001
Step Temp E_pair E_mol TotEng Press Volume
0          300   -2873371.4            0   -2841870.8     2838.921     10133330
Loop time of 126.828 on 512 procs for 10000 steps with 812331 atoms

unfix 1

fix            2 all nvt temp 300.0 300.0 0.1

run      10000
Setting up Verlet run ...
  Unit style  : metal
  Current step: 10000
  Time step   : 0.001
Step Temp E_pair E_mol TotEng Press
10000    299.39408   -2841250.4            0   -2809813.4     15.95905
Loop time of 124.162 on 512 procs for 10000 steps with 812331 atoms

reset_timestep 0
unfix    2
#---------------------- DEFINE Laser GERION and GROUP ----------------
region       R1  block -75  75  INF  INF  INF  5  units box
group        G1 region R1
259338 atoms in group G1
group        G2 subtract all G1
552993 atoms in group G2

#define     temperature/pressure calculation  group
variable    x1atom atom "x>=0  &&  x<4 &&  z>-40 && z<1"     ##NEW!!!!!!!!!!!!
variable    x2atom atom "x>=-234.98  &&  x<-230.98 &&  z>-40 && z<1"
variable    x3atom atom "x>=0  &&  x<4 &&  z>-20 && z<1"
variable    x4atom atom "x>=-234.98  &&  x<-230.98 &&  z>-20 && z<1"
variable    x5atom atom "x>=196  &&  x<200 &&  z>-40 && z<1"

group       x1atom variable x1atom
325 atoms in group x1atom
group       x2atom variable x2atom
276 atoms in group x2atom
group       x3atom variable x3atom
162 atoms in group x3atom
group       x4atom variable x4atom
144 atoms in group x4atom
group       x5atom variable x5atom
356 atoms in group x5atom

compute      COM1x x1atom com
compute      COM2x x2atom com
compute      COM3x x3atom com
compute      COM4x x4atom com
compute      COM5x x5atom com

compute      COMall all com

#Temperature profile
#variable      Tprofile atom 300*(1+(step/5000)*2.5*exp(z/40))
#variable tmp equal "lz"
variable      Tprofile atom  300+600*(step/5000)*exp(z/40)*exp(-x*x/1289)

# ------------------------- SETTINGS ---------------------------------
thermo          100
thermo_style    custom step lx pxx pyy pzz temp c_COM1x[1] c_COM1x[2] c_COM1x[3] c_COM2x[1] c_COM2x[2] c_COM2x[3] c_COM3x[1] c_COM3x[2] c_COM3x[3] c_COM4x[1] c_COM4x[2] c_COM4x[3]  c_COM5x[1] c_COM5x[2] c_COM5x[3] c_COMall[1] c_COMall[2] c_COMall[3]

timestep       0.002

compute dispall all displace/atom
# ---------------- Run Laser Material Interaction --------------------
#dump          1 all custom 1000 dump/z1dump.atom id type x y z c_dispall[1]  c_dispall[2]  c_dispall[3] c_dispall[4]
#dump          2 all cfg 100 cfg/*.cfg mass type xs ys zs
#dump_modify   2 element Al

#relax for 2 PS
#fix           1 all nvt temp 300.0 300.0 0.1
#run  1000
#unfix         1

fix           1  all nve
fix           3temp  all  langevin  v_Tprofile  0  0.1  378411   #TEST ALL
run           5000
Setting up Verlet run ...
  Unit style  : metal
  Current step: 0
  Time step   : 0.002
Step Lx Pxx Pyy Pzz Temp COM1x[1] COM1x[2] COM1x[3] COM2x[1] COM2x[2] COM2x[3] COM3x[1] COM3x[2] COM3x[3] COM4x[1] COM4x[2] COM4x[3] COM5x[1] COM5x[2] COM5x[3] COMall[1 COMall[2 COMall[3
0    472.06393   -468.93431   -465.49444   -420.49633    299.91354    2.2823766  -0.96767909   -20.000957   -233.34198  -0.90926021   -19.338771    2.3793809  -0.97635969   -9.3454868   -233.33671  -0.91682664   -9.3429851    198.13789  -0.75790901   -19.678947  -0.90755486  -0.90769343   -469.92143
Averages over the last 26 of 51 rows, steps 2500 to 5000:
Lx Pxx Pyy Pzz Temp COM1x[1] COM1x[2] COM1x[3] COM2x[1] COM2x[2] COM2x[3] COM3x[1] COM3x[2] COM3x[3] COM4x[1] COM4x[2] COM4x[3] COM5x[1] COM5x[2] COM5x[3] COMall[1 COMall[2 COMall[3
472.064 -327.74 -328.989 -314.912 302.789 2.31569 -0.93997 -19.9571 -233.332 -0.935419 -19.3294 2.42954 -0.960325 -9.24694 -233.34 -0.940703 -9.36044 198.154 -0.704301 -19.6957 -0.909185 -0.907426 -469.922
Loop time of 65.4395 on 512 procs for 5000 steps with 812331 atoms

variable  com1_x equal "c_COM1x[1]"
variable  com1_y equal "c_COM1x[2]"
variable  com1_z equal "c_COM1x[3]"
variable  com2_x equal "c_COM2x[1]"
variable  com2_y equal "c_COM2x[2]"
variable  com2_z equal "c_COM2x[3]"
variable  com3_x equal "c_COM3x[1]"
variable  com3_y equal "c_COM3x[2]"
variable  com3_z equal "c_COM3x[3]"
variable  com4_x equal "c_COM4x[1]"
variable  com4_y equal "c_COM4x[2]"
variable  com4_z equal "c_COM4x[3]"
variable  com5_x equal "c_COM5x[1]"
variable  com5_y equal "c_COM5x[2]"
variable  com5_z equal "c_COM5x[3]"
variable  comall_x equal "c_COMall[1]"
variable  comall_y equal "c_COMall[2]"
variable  comall_z equal "c_COMall[3]"

#-------------------------- Wave Propagation -------------------------
unfix        3temp
run          1000000
Setting up Verlet run ...
  Unit style  : metal
  Current step: 5000
  Time step   : 0.002
Step Lx Pxx Pyy Pzz Temp COM1x[1] COM1x[2] COM1x[3] COM2x[1] COM2x[2] COM2x[3] COM3x[1] COM3x[2] COM3x[3] COM4x[1] COM4x[2] COM4x[3] COM5x[1] COM5x[2] COM5x[3] COMall[1 COMall[2 COMall[3
5000    472.06393   -283.36139   -280.90335   -249.43434    303.37746    2.3515214  -0.95034096   -19.943932   -233.33582  -0.90257258   -19.344537    2.4447083   -1.0027775   -9.2226887   -233.32161   -0.9081925   -9.3960441    198.15023  -0.72589247   -19.711135  -0.90848576  -0.90922057   -469.92504
Averages over the last 5001 of 10001 rows, steps 505000 to 1005000:
Lx Pxx Pyy Pzz Temp COM1x[1] COM1x[2] COM1x[3] COM2x[1] COM2x[2] COM2x[3] COM3x[1] COM3x[2] COM3x[3] COM4x[1] COM4x[2] COM4x[3] COM5x[1] COM5x[2] COM5x[3] COMall[1 COMall[2 COMall[3
472.064 -94.653 -85.1444 -3.86945 303.599 5.71076 -0.176555 -24.7219 -229.911 -0.112369 -24.0885 5.81861 -0.202113 -14.0725 -229.913 -0.112282 -14.0989 201.598 0.0809845 -24.4362 2.49193 -0.112311 -474.585
Loop time of 12507.1 on 512 procs for 1000000 steps with 812331 atoms
