fission-0329
fission-0329
fission-0329
fission-0329
fission-0329
fission-0329
fission-0329
fission-0329
fission-0329
fission-0329
fission-0329
fission-0329
fission-0329
fission-0329
fission-0329
fission-0329
fission-0329
fission-0329
fission-0329
fission-0329
fission-0329
fission-0329
fission-0329
fission-0329
fission-0329
fission-0329
fission-0329
fission-0329
fission-0329
fission-0329
fission-0329
fission-0329
fission-0326
fission-0326
fission-0326
fission-0326
fission-0326
fission-0326
fission-0326
fission-0326
fission-0326
fission-0326
fission-0326
fission-0326
fission-0326
fission-0326
fission-0326
fission-0326
fission-0326
fission-0326
fission-0326
fission-0326
fission-0326
fission-0326
fission-0326
fission-0326
fission-0326
fission-0326
fission-0326
fission-0326
fission-0326
fission-0326
fission-0326
fission-0326
fission-0196
fission-0196
fission-0196
fission-0196
fission-0196
fission-0196
fission-0196
fission-0196
fission-0196
fission-0196
fission-0196
fission-0196
fission-0196
fission-0196
fission-0196
fission-0196
fission-0196
fission-0196
fission-0196
fission-0196
fission-0196
fission-0196
fission-0196
fission-0196
fission-0196
fission-0196
fission-0196
fission-0196
fission-0196
fission-0196
fission-0196
fission-0196
fission-0249
fission-0249
fission-0249
fission-0249
fission-0249
fission-0249
fission-0249
fission-0249
fission-0249
fission-0249
fission-0249
fission-0249
fission-0249
fission-0249
fission-0249
fission-0249
fission-0249
fission-0249
fission-0249
fission-0249
fission-0249
fission-0249
fission-0249
fission-0249
fission-0249
fission-0249
fission-0249
fission-0249
fission-0249
fission-0249
fission-0249
fission-0249
fission-0250
fission-0250
fission-0250
fission-0250
fission-0250
fission-0250
fission-0250
fission-0250
fission-0250
fission-0250
fission-0250
fission-0250
fission-0250
fission-0250
fission-0250
fission-0250
fission-0250
fission-0250
fission-0250
fission-0250
fission-0250
fission-0250
fission-0250
fission-0250
fission-0250
fission-0250
fission-0250
fission-0250
fission-0250
fission-0250
fission-0250
fission-0250
fission-0257
fission-0257
fission-0257
fission-0257
fission-0257
fission-0257
fission-0257
fission-0257
fission-0257
fission-0257
fission-0257
fission-0257
fission-0257
fission-0257
fission-0257
fission-0257
fission-0257
fission-0257
fission-0257
fission-0257
fission-0257
fission-0257
fission-0257
fission-0257
fission-0257
fission-0257
fission-0257
fission-0257
fission-0257
fission-0257
fission-0257
fission-0257
fission-0258
fission-0258
fission-0258
fission-0258
fission-0258
fission-0258
fission-0258
fission-0258
fission-0258
fission-0258
fission-0258
fission-0258
fission-0258
fission-0258
fission-0258
fission-0258
fission-0258
fission-0258
fission-0258
fission-0258
fission-0258
fission-0258
fission-0258
fission-0258
fission-0258
fission-0258
fission-0258
fission-0258
fission-0258
fission-0258
fission-0258
fission-0258
fission-0263
fission-0263
fission-0263
fission-0263
fission-0263
fission-0263
fission-0263
fission-0263
fission-0263
fission-0263
fission-0263
fission-0263
fission-0263
fission-0263
fission-0263
fission-0263
fission-0263
fission-0263
fission-0263
fission-0263
fission-0263
fission-0263
fission-0263
fission-0263
fission-0263
fission-0263
fission-0263
fission-0263
fission-0263
fission-0263
fission-0263
fission-0263
fission-0299
fission-0299
fission-0299
fission-0299
fission-0299
fission-0299
fission-0299
fission-0299
fission-0299
fission-0299
fission-0299
fission-0299
fission-0299
fission-0299
fission-0299
fission-0299
fission-0299
fission-0299
fission-0299
fission-0299
fission-0299
fission-0299
fission-0299
fission-0299
fission-0299
fission-0299
fission-0299
fission-0299
fission-0299
fission-0299
fission-0299
fission-0299
fission-0261
fission-0261
fission-0261
fission-0261
fission-0261
fission-0261
fission-0261
fission-0261
fission-0261
fission-0261
fission-0261
fission-0261
fission-0261
fission-0261
fission-0261
fission-0261
fission-0261
fission-0261
fission-0261
fission-0261
fission-0261
fission-0261
fission-0261
fission-0261
fission-0261
fission-0261
fission-0261
fission-0261
fission-0261
fission-0261
fission-0261
fission-0261
fission-0318
fission-0318
fission-0318
fission-0318
fission-0318
fission-0318
fission-0318
fission-0318
fission-0318
fission-0318
fission-0318
fission-0318
fission-0318
fission-0318
fission-0318
fission-0318
fission-0318
fission-0318
fission-0318
fission-0318
fission-0318
fission-0318
fission-0318
fission-0318
fission-0318
fission-0318
fission-0318
fission-0318
fission-0318
fission-0318
fission-0318
fission-0318
fission-0320
fission-0320
fission-0320
fission-0320
fission-0320
fission-0320
fission-0320
fission-0320
fission-0320
fission-0320
fission-0320
fission-0320
fission-0320
fission-0320
fission-0320
fission-0320
fission-0320
fission-0320
fission-0320
fission-0320
fission-0320
fission-0320
fission-0320
fission-0320
fission-0320
fission-0320
fission-0320
fission-0320
fission-0320
fission-0320
fission-0320
fission-0320
fission-0074
fission-0074
fission-0074
fission-0074
fission-0074
fission-0074
fission-0074
fission-0074
fission-0074
fission-0074
fission-0074
fission-0074
fission-0074
fission-0074
fission-0074
fission-0074
fission-0074
fission-0074
fission-0074
fission-0074
fission-0074
fission-0074
fission-0074
fission-0074
fission-0074
fission-0074
fission-0074
fission-0074
fission-0074
fission-0074
fission-0074
fission-0074
fission-0238
fission-0238
fission-0238
fission-0238
fission-0238
fission-0238
fission-0238
fission-0238
fission-0238
fission-0238
fission-0238
fission-0238
fission-0238
fission-0238
fission-0238
fission-0238
fission-0238
fission-0238
fission-0238
fission-0238
fission-0238
fission-0238
fission-0238
fission-0238
fission-0238
fission-0238
fission-0238
fission-0238
fission-0238
fission-0238
fission-0238
fission-0238
fission-0217
fission-0217
fission-0217
fission-0217
fission-0217
fission-0217
fission-0217
fission-0217
fission-0217
fission-0217
fission-0217
fission-0217
fission-0217
fission-0217
fission-0217
fission-0217
fission-0217
fission-0217
fission-0217
fission-0217
fission-0217
fission-0217
fission-0217
fission-0217
fission-0217
fission-0217
fission-0217
fission-0217
fission-0217
fission-0217
fission-0217
fission-0217
fission-0290
fission-0290
fission-0290
fission-0290
fission-0290
fission-0290
fission-0290
fission-0290
fission-0290
fission-0290
fission-0290
fission-0290
fission-0290
fission-0290
fission-0290
fission-0290
fission-0290
fission-0290
fission-0290
fission-0290
fission-0290
fission-0290
fission-0290
fission-0290
fission-0290
fission-0290
fission-0290
fission-0290
fission-0290
fission-0290
fission-0290
fission-0290

The following PBS extra args (PBS_EXTRA_ARGS) will be used: -P ldrd
The following lammps extra args (LAMMPS_EXTRA_ARGS) will be used:
LAMMPS (16 Feb 2016)
#log		log.c
units           metal
dimension       3
boundary        p p p
atom_style      atomic
shell         mkdir  cfg
shell         mkdir  dump

# ----------------------- ATOM DEFINITION & Force Field -------------
lattice         fcc 3.615 #origin 0.0 0.0 0.0 orient x 1 -1 0 orient y 1 1 -2 orient z 1 1 1
Lattice spacing in x,y,z = 3.615 3.615 3.615
variable        Lx equal 65
variable        Ly equal 3
variable        Lz equal 260
variable        boxLZ equal 270
region          SYSTEM block -65 65 -3 3 -260 0 units lattice
region          BOX block -65 65 -3 3 -270 5 units lattice
create_box      1 BOX
Created orthogonal box = (-234.975 -10.845 -976.05) to (234.975 10.845 18.075)
create_atoms    1 region SYSTEM
Created 812760 atoms

delete_atoms     porosity BOX 0.0005 10939
Deleted 385 atoms, new total = 812375

#---------------------------------------------------------------------

pair_style      eam/alloy
pair_coeff  	  * * Cu01.eam.alloy Cu

#----------------------------------------------------------------------
velocity       all create 300.0 15584 mom yes rot yes dist gaussian
fix             1 all npt temp 300 300 0.1 iso 0.0 0.0 2
run      10000
  1 neighbor list requests
  update every 1 steps, delay 10 steps, check yes
Setting up Verlet run ...
  Unit style  : metal
  Current step: 0
  Time step   : 0.001
Step Temp E_pair E_mol TotEng Press Volume
0          300   -2873584.5            0   -2842082.2    2855.7524     10133330
Loop time of 126.837 on 512 procs for 10000 steps with 812375 atoms

unfix 1

fix            2 all nvt temp 300.0 300.0 0.1

run      10000
Setting up Verlet run ...
  Unit style  : metal
  Current step: 10000
  Time step   : 0.001
Step Temp E_pair E_mol TotEng Press
10000     299.8791     -2841479            0   -2809989.4    2.6295152
Loop time of 122.563 on 512 procs for 10000 steps with 812375 atoms

reset_timestep 0
unfix    2
#---------------------- DEFINE Laser GERION and GROUP ----------------
region       R1  block -75  75  INF  INF  INF  5  units box
group        G1 region R1
259334 atoms in group G1
group        G2 subtract all G1
553041 atoms in group G2

#define     temperature/pressure calculation  group
variable    x1atom atom "x>=0  &&  x<4 &&  z>-40 && z<1"     ##NEW!!!!!!!!!!!!
variable    x2atom atom "x>=-234.98  &&  x<-230.98 &&  z>-40 && z<1"
variable    x3atom atom "x>=0  &&  x<4 &&  z>-20 && z<1"
variable    x4atom atom "x>=-234.98  &&  x<-230.98 &&  z>-20 && z<1"
variable    x5atom atom "x>=196  &&  x<200 &&  z>-40 && z<1"

group       x1atom variable x1atom
287 atoms in group x1atom
group       x2atom variable x2atom
276 atoms in group x2atom
group       x3atom variable x3atom
147 atoms in group x3atom
group       x4atom variable x4atom
144 atoms in group x4atom
group       x5atom variable x5atom
380 atoms in group x5atom

compute      COM1x x1atom com
compute      COM2x x2atom com
compute      COM3x x3atom com
compute      COM4x x4atom com
compute      COM5x x5atom com

compute      COMall all com

#Temperature profile
#variable      Tprofile atom 300*(1+(step/5000)*2.5*exp(z/40))
#variable tmp equal "lz"
variable      Tprofile atom  300+600*(step/5000)*exp(z/40)*exp(-x*x/1289)

# ------------------------- SETTINGS ---------------------------------
thermo          100
thermo_style    custom step lx pxx pyy pzz temp c_COM1x[1] c_COM1x[2] c_COM1x[3] c_COM2x[1] c_COM2x[2] c_COM2x[3] c_COM3x[1] c_COM3x[2] c_COM3x[3] c_COM4x[1] c_COM4x[2] c_COM4x[3]  c_COM5x[1] c_COM5x[2] c_COM5x[3] c_COMall[1] c_COMall[2] c_COMall[3]

timestep       0.002

compute dispall all displace/atom
# ---------------- Run Laser Material Interaction --------------------
#dump          1 all custom 1000 dump/z1dump.atom id type x y z c_dispall[1]  c_dispall[2]  c_dispall[3] c_dispall[4]
#dump          2 all cfg 100 cfg/*.cfg mass type xs ys zs
#dump_modify   2 element Al

#relax for 2 PS
#fix           1 all nvt temp 300.0 300.0 0.1
#run  1000
#unfix         1

fix           1  all nve
fix           3temp  all  langevin  v_Tprofile  0  0.1  378411   #TEST ALL
run           5000
Setting up Verlet run ...
  Unit style  : metal
  Current step: 0
  Time step   : 0.002
Step Lx Pxx Pyy Pzz Temp COM1x[1] COM1x[2] COM1x[3] COM2x[1] COM2x[2] COM2x[3] COM3x[1] COM3x[2] COM3x[3] COM4x[1] COM4x[2] COM4x[3] COM5x[1] COM5x[2] COM5x[3] COMall[1 COMall[2 COMall[3
0    472.05349   -533.65848   -506.47896   -526.76591    300.33907    2.5172953  -0.95776012   -19.563199   -233.40154  -0.88863345   -19.379125    2.5250265   -0.8767109   -9.3329747   -233.40861  -0.91634029   -9.3856316    198.05184  -0.94793553   -18.639853  -0.89956508  -0.90784098   -469.89864
Averages over the last 26 of 51 rows, steps 2500 to 5000:
Lx Pxx Pyy Pzz Temp COM1x[1] COM1x[2] COM1x[3] COM2x[1] COM2x[2] COM2x[3] COM3x[1] COM3x[2] COM3x[3] COM4x[1] COM4x[2] COM4x[3] COM5x[1] COM5x[2] COM5x[3] COMall[1 COMall[2 COMall[3
472.053 -383.895 -381.998 -432.158 302.748 2.54131 -0.913299 -19.4902 -233.339 -0.909864 -19.3817 2.57395 -0.837336 -9.2229 -233.347 -0.92103 -9.39552 198.06 -0.883337 -18.6414 -0.901232 -0.907568 -469.9
Loop time of 65.329 on 512 procs for 5000 steps with 812375 atoms

variable  com1_x equal "c_COM1x[1]"
variable  com1_y equal "c_COM1x[2]"
variable  com1_z equal "c_COM1x[3]"
variable  com2_x equal "c_COM2x[1]"
variable  com2_y equal "c_COM2x[2]"
variable  com2_z equal "c_COM2x[3]"
variable  com3_x equal "c_COM3x[1]"
variable  com3_y equal "c_COM3x[2]"
variable  com3_z equal "c_COM3x[3]"
variable  com4_x equal "c_COM4x[1]"
variable  com4_y equal "c_COM4x[2]"
variable  com4_z equal "c_COM4x[3]"
variable  com5_x equal "c_COM5x[1]"
variable  com5_y equal "c_COM5x[2]"
variable  com5_z equal "c_COM5x[3]"
variable  comall_x equal "c_COMall[1]"
variable  comall_y equal "c_COMall[2]"
variable  comall_z equal "c_COMall[3]"

#-------------------------- Wave Propagation -------------------------
unfix        3temp
run          1000000
Setting up Verlet run ...
  Unit style  : metal
  Current step: 5000
  Time step   : 0.002
Step Lx Pxx Pyy Pzz Temp COM1x[1] COM1x[2] COM1x[3] COM2x[1] COM2x[2] COM2x[3] COM3x[1] COM3x[2] COM3x[3] COM4x[1] COM4x[2] COM4x[3] COM5x[1] COM5x[2] COM5x[3] COMall[1 COMall[2 COMall[3
5000    472.05349    -297.6155   -344.30265   -379.22113    303.80675    2.5972853  -0.96688092   -19.481453   -233.34756  -0.91341089   -19.366321    2.6352918  -0.95197607   -9.1883317   -233.36437   -0.9192817   -9.4001348    198.05634  -0.90682534   -18.656115  -0.90055314  -0.90928244   -469.90244
Averages over the last 5001 of 10001 rows, steps 505000 to 1005000:
Lx Pxx Pyy Pzz Temp COM1x[1] COM1x[2] COM1x[3] COM2x[1] COM2x[2] COM2x[3] COM3x[1] COM3x[2] COM3x[3] COM4x[1] COM4x[2] COM4x[3] COM5x[1] COM5x[2] COM5x[3] COMall[1 COMall[2 COMall[3
472.053 -59.131 -51.3879 -3.9093 304.027 3.98878 1.00788 -17.1078 -231.935 1.01152 -16.7861 4.03594 1.06658 -6.89316 -231.936 1.01149 -6.79515 199.428 0.987688 -16.0543 0.468965 1.01163 -467.298
Loop time of 12278.2 on 512 procs for 1000000 steps with 812375 atoms
