fission-0166
fission-0166
fission-0166
fission-0166
fission-0166
fission-0166
fission-0166
fission-0166
fission-0166
fission-0166
fission-0166
fission-0166
fission-0166
fission-0166
fission-0166
fission-0166
fission-0166
fission-0166
fission-0166
fission-0166
fission-0166
fission-0166
fission-0166
fission-0166
fission-0166
fission-0166
fission-0166
fission-0166
fission-0166
fission-0166
fission-0166
fission-0166
fission-0156
fission-0156
fission-0156
fission-0156
fission-0156
fission-0156
fission-0156
fission-0156
fission-0156
fission-0156
fission-0156
fission-0156
fission-0156
fission-0156
fission-0156
fission-0156
fission-0156
fission-0156
fission-0156
fission-0156
fission-0156
fission-0156
fission-0156
fission-0156
fission-0156
fission-0156
fission-0156
fission-0156
fission-0156
fission-0156
fission-0156
fission-0156
fission-0159
fission-0159
fission-0159
fission-0159
fission-0159
fission-0159
fission-0159
fission-0159
fission-0159
fission-0159
fission-0159
fission-0159
fission-0159
fission-0159
fission-0159
fission-0159
fission-0159
fission-0159
fission-0159
fission-0159
fission-0159
fission-0159
fission-0159
fission-0159
fission-0159
fission-0159
fission-0159
fission-0159
fission-0159
fission-0159
fission-0159
fission-0159
fission-0155
fission-0155
fission-0155
fission-0155
fission-0155
fission-0155
fission-0155
fission-0155
fission-0155
fission-0155
fission-0155
fission-0155
fission-0155
fission-0155
fission-0155
fission-0155
fission-0155
fission-0155
fission-0155
fission-0155
fission-0155
fission-0155
fission-0155
fission-0155
fission-0155
fission-0155
fission-0155
fission-0155
fission-0155
fission-0155
fission-0155
fission-0155
fission-0146
fission-0146
fission-0146
fission-0146
fission-0146
fission-0146
fission-0146
fission-0146
fission-0146
fission-0146
fission-0146
fission-0146
fission-0146
fission-0146
fission-0146
fission-0146
fission-0146
fission-0146
fission-0146
fission-0146
fission-0146
fission-0146
fission-0146
fission-0146
fission-0146
fission-0146
fission-0146
fission-0146
fission-0146
fission-0146
fission-0146
fission-0146
fission-0148
fission-0148
fission-0148
fission-0148
fission-0148
fission-0148
fission-0148
fission-0148
fission-0148
fission-0148
fission-0148
fission-0148
fission-0148
fission-0148
fission-0148
fission-0148
fission-0148
fission-0148
fission-0148
fission-0148
fission-0148
fission-0148
fission-0148
fission-0148
fission-0148
fission-0148
fission-0148
fission-0148
fission-0148
fission-0148
fission-0148
fission-0148
fission-0149
fission-0149
fission-0149
fission-0149
fission-0149
fission-0149
fission-0149
fission-0149
fission-0149
fission-0149
fission-0149
fission-0149
fission-0149
fission-0149
fission-0149
fission-0149
fission-0149
fission-0149
fission-0149
fission-0149
fission-0149
fission-0149
fission-0149
fission-0149
fission-0149
fission-0149
fission-0149
fission-0149
fission-0149
fission-0149
fission-0149
fission-0149
fission-0151
fission-0151
fission-0151
fission-0151
fission-0151
fission-0151
fission-0151
fission-0151
fission-0151
fission-0151
fission-0151
fission-0151
fission-0151
fission-0151
fission-0151
fission-0151
fission-0151
fission-0151
fission-0151
fission-0151
fission-0151
fission-0151
fission-0151
fission-0151
fission-0151
fission-0151
fission-0151
fission-0151
fission-0151
fission-0151
fission-0151
fission-0151
fission-0154
fission-0154
fission-0154
fission-0154
fission-0154
fission-0154
fission-0154
fission-0154
fission-0154
fission-0154
fission-0154
fission-0154
fission-0154
fission-0154
fission-0154
fission-0154
fission-0154
fission-0154
fission-0154
fission-0154
fission-0154
fission-0154
fission-0154
fission-0154
fission-0154
fission-0154
fission-0154
fission-0154
fission-0154
fission-0154
fission-0154
fission-0154
fission-0153
fission-0153
fission-0153
fission-0153
fission-0153
fission-0153
fission-0153
fission-0153
fission-0153
fission-0153
fission-0153
fission-0153
fission-0153
fission-0153
fission-0153
fission-0153
fission-0153
fission-0153
fission-0153
fission-0153
fission-0153
fission-0153
fission-0153
fission-0153
fission-0153
fission-0153
fission-0153
fission-0153
fission-0153
fission-0153
fission-0153
fission-0153
fission-0152
fission-0152
fission-0152
fission-0152
fission-0152
fission-0152
fission-0152
fission-0152
fission-0152
fission-0152
fission-0152
fission-0152
fission-0152
fission-0152
fission-0152
fission-0152
fission-0152
fission-0152
fission-0152
fission-0152
fission-0152
fission-0152
fission-0152
fission-0152
fission-0152
fission-0152
fission-0152
fission-0152
fission-0152
fission-0152
fission-0152
fission-0152
fission-0157
fission-0157
fission-0157
fission-0157
fission-0157
fission-0157
fission-0157
fission-0157
fission-0157
fission-0157
fission-0157
fission-0157
fission-0157
fission-0157
fission-0157
fission-0157
fission-0157
fission-0157
fission-0157
fission-0157
fission-0157
fission-0157
fission-0157
fission-0157
fission-0157
fission-0157
fission-0157
fission-0157
fission-0157
fission-0157
fission-0157
fission-0157
fission-0141
fission-0141
fission-0141
fission-0141
fission-0141
fission-0141
fission-0141
fission-0141
fission-0141
fission-0141
fission-0141
fission-0141
fission-0141
fission-0141
fission-0141
fission-0141
fission-0141
fission-0141
fission-0141
fission-0141
fission-0141
fission-0141
fission-0141
fission-0141
fission-0141
fission-0141
fission-0141
fission-0141
fission-0141
fission-0141
fission-0141
fission-0141
fission-0163
fission-0163
fission-0163
fission-0163
fission-0163
fission-0163
fission-0163
fission-0163
fission-0163
fission-0163
fission-0163
fission-0163
fission-0163
fission-0163
fission-0163
fission-0163
fission-0163
fission-0163
fission-0163
fission-0163
fission-0163
fission-0163
fission-0163
fission-0163
fission-0163
fission-0163
fission-0163
fission-0163
fission-0163
fission-0163
fission-0163
fission-0163
fission-0147
fission-0147
fission-0147
fission-0147
fission-0147
fission-0147
fission-0147
fission-0147
fission-0147
fission-0147
fission-0147
fission-0147
fission-0147
fission-0147
fission-0147
fission-0147
fission-0147
fission-0147
fission-0147
fission-0147
fission-0147
fission-0147
fission-0147
fission-0147
fission-0147
fission-0147
fission-0147
fission-0147
fission-0147
fission-0147
fission-0147
fission-0147
fission-0162
fission-0162
fission-0162
fission-0162
fission-0162
fission-0162
fission-0162
fission-0162
fission-0162
fission-0162
fission-0162
fission-0162
fission-0162
fission-0162
fission-0162
fission-0162
fission-0162
fission-0162
fission-0162
fission-0162
fission-0162
fission-0162
fission-0162
fission-0162
fission-0162
fission-0162
fission-0162
fission-0162
fission-0162
fission-0162
fission-0162
fission-0162

The following PBS extra args (PBS_EXTRA_ARGS) will be used: -P ldrd
The following lammps extra args (LAMMPS_EXTRA_ARGS) will be used:
LAMMPS (16 Feb 2016)
#log		log.c
units           metal
dimension       3
boundary        p p p
atom_style      atomic
shell         mkdir  cfg
shell         mkdir  dump

# ----------------------- ATOM DEFINITION & Force Field -------------
lattice         fcc 3.615 #origin 0.0 0.0 0.0 orient x 1 -1 0 orient y 1 1 -2 orient z 1 1 1
Lattice spacing in x,y,z = 3.615 3.615 3.615
variable        Lx equal 65
variable        Ly equal 3
variable        Lz equal 260
variable        boxLZ equal 270
region          SYSTEM block -65 65 -3 3 -260 0 units lattice
region          BOX block -65 65 -3 3 -270 5 units lattice
create_box      1 BOX
Created orthogonal box = (-234.975 -10.845 -976.05) to (234.975 10.845 18.075)
create_atoms    1 region SYSTEM
Created 812760 atoms

delete_atoms     porosity BOX 0.0002 28107
Deleted 188 atoms, new total = 812572

#---------------------------------------------------------------------

pair_style      eam/alloy
pair_coeff  	  * * Cu01.eam.alloy Cu

#----------------------------------------------------------------------
velocity       all create 300.0 19597 mom yes rot yes dist gaussian
fix             1 all npt temp 300 300 0.1 iso 0.0 0.0 2
run      10000
  1 neighbor list requests
  update every 1 steps, delay 10 steps, check yes
Setting up Verlet run ...
  Unit style  : metal
  Current step: 0
  Time step   : 0.001
Step Temp E_pair E_mol TotEng Press Volume
0          300     -2874541            0     -2843031    2930.7204     10133330
Loop time of 129.067 on 512 procs for 10000 steps with 812572 atoms

unfix 1

fix            2 all nvt temp 300.0 300.0 0.1

run      10000
Setting up Verlet run ...
  Unit style  : metal
  Current step: 10000
  Time step   : 0.001
Step Temp E_pair E_mol TotEng Press
10000    299.45156   -2842368.6            0   -2810916.3    10.134434
Loop time of 125.581 on 512 procs for 10000 steps with 812572 atoms

reset_timestep 0
unfix    2
#---------------------- DEFINE Laser GERION and GROUP ----------------
region       R1  block -75  75  INF  INF  INF  5  units box
group        G1 region R1
259388 atoms in group G1
group        G2 subtract all G1
553184 atoms in group G2

#define     temperature/pressure calculation  group
variable    x1atom atom "x>=0  &&  x<4 &&  z>-40 && z<1"     ##NEW!!!!!!!!!!!!
variable    x2atom atom "x>=-234.98  &&  x<-230.98 &&  z>-40 && z<1"
variable    x3atom atom "x>=0  &&  x<4 &&  z>-20 && z<1"
variable    x4atom atom "x>=-234.98  &&  x<-230.98 &&  z>-20 && z<1"
variable    x5atom atom "x>=196  &&  x<200 &&  z>-40 && z<1"

group       x1atom variable x1atom
318 atoms in group x1atom
group       x2atom variable x2atom
276 atoms in group x2atom
group       x3atom variable x3atom
166 atoms in group x3atom
group       x4atom variable x4atom
144 atoms in group x4atom
group       x5atom variable x5atom
389 atoms in group x5atom

compute      COM1x x1atom com
compute      COM2x x2atom com
compute      COM3x x3atom com
compute      COM4x x4atom com
compute      COM5x x5atom com

compute      COMall all com

#Temperature profile
#variable      Tprofile atom 300*(1+(step/5000)*2.5*exp(z/40))
#variable tmp equal "lz"
variable      Tprofile atom  300+600*(step/5000)*exp(z/40)*exp(-x*x/1289)

# ------------------------- SETTINGS ---------------------------------
thermo          100
thermo_style    custom step lx pxx pyy pzz temp c_COM1x[1] c_COM1x[2] c_COM1x[3] c_COM2x[1] c_COM2x[2] c_COM2x[3] c_COM3x[1] c_COM3x[2] c_COM3x[3] c_COM4x[1] c_COM4x[2] c_COM4x[3]  c_COM5x[1] c_COM5x[2] c_COM5x[3] c_COMall[1] c_COMall[2] c_COMall[3]

timestep       0.002

compute dispall all displace/atom
# ---------------- Run Laser Material Interaction --------------------
#dump          1 all custom 1000 dump/z1dump.atom id type x y z c_dispall[1]  c_dispall[2]  c_dispall[3] c_dispall[4]
#dump          2 all cfg 100 cfg/*.cfg mass type xs ys zs
#dump_modify   2 element Al

#relax for 2 PS
#fix           1 all nvt temp 300.0 300.0 0.1
#run  1000
#unfix         1

fix           1  all nve
fix           3temp  all  langevin  v_Tprofile  0  0.1  378411   #TEST ALL
run           5000
Setting up Verlet run ...
  Unit style  : metal
  Current step: 0
  Time step   : 0.002
Step Lx Pxx Pyy Pzz Temp COM1x[1] COM1x[2] COM1x[3] COM2x[1] COM2x[2] COM2x[3] COM3x[1] COM3x[2] COM3x[3] COM4x[1] COM4x[2] COM4x[3] COM5x[1] COM5x[2] COM5x[3] COMall[1 COMall[2 COMall[3
0    472.07119   -378.28661   -359.35873   -313.51131    299.58615    2.3453276  -0.94877426   -19.306023   -233.36194  -0.86147334    -19.33238    2.3600045  -0.95718951   -9.4979789   -233.35004  -0.85824836   -9.3289457    198.01687  -0.79667311   -19.429582  -0.90556347  -0.90775547    -469.9033
Averages over the last 26 of 51 rows, steps 2500 to 5000:
Lx Pxx Pyy Pzz Temp COM1x[1] COM1x[2] COM1x[3] COM2x[1] COM2x[2] COM2x[3] COM3x[1] COM3x[2] COM3x[3] COM4x[1] COM4x[2] COM4x[3] COM5x[1] COM5x[2] COM5x[3] COMall[1 COMall[2 COMall[3
472.071 -256.246 -241.336 -226.054 302.786 2.37663 -0.941785 -19.2842 -233.322 -0.88763 -19.3004 2.37491 -0.941373 -9.42043 -233.349 -0.894775 -9.306 198.024 -0.77342 -19.4366 -0.907221 -0.907411 -469.904
Loop time of 66.6941 on 512 procs for 5000 steps with 812572 atoms

variable  com1_x equal "c_COM1x[1]"
variable  com1_y equal "c_COM1x[2]"
variable  com1_z equal "c_COM1x[3]"
variable  com2_x equal "c_COM2x[1]"
variable  com2_y equal "c_COM2x[2]"
variable  com2_z equal "c_COM2x[3]"
variable  com3_x equal "c_COM3x[1]"
variable  com3_y equal "c_COM3x[2]"
variable  com3_z equal "c_COM3x[3]"
variable  com4_x equal "c_COM4x[1]"
variable  com4_y equal "c_COM4x[2]"
variable  com4_z equal "c_COM4x[3]"
variable  com5_x equal "c_COM5x[1]"
variable  com5_y equal "c_COM5x[2]"
variable  com5_z equal "c_COM5x[3]"
variable  comall_x equal "c_COMall[1]"
variable  comall_y equal "c_COMall[2]"
variable  comall_z equal "c_COMall[3]"

#-------------------------- Wave Propagation -------------------------
unfix        3temp
run          1000000
Setting up Verlet run ...
  Unit style  : metal
  Current step: 5000
  Time step   : 0.002
Step Lx Pxx Pyy Pzz Temp COM1x[1] COM1x[2] COM1x[3] COM2x[1] COM2x[2] COM2x[3] COM3x[1] COM3x[2] COM3x[3] COM4x[1] COM4x[2] COM4x[3] COM5x[1] COM5x[2] COM5x[3] COMall[1 COMall[2 COMall[3
5000    472.07119   -203.80954    -160.9561   -143.09724    303.51029    2.3689519  -0.93789682   -19.257595    -233.3196  -0.88755724    -19.31687    2.3600505   -0.9807786   -9.3561294    -233.3364  -0.88996466   -9.3269073      198.016  -0.79158787   -19.438681  -0.90639844  -0.90926449   -469.90695
Averages over the last 5001 of 10001 rows, steps 505000 to 1005000:
Lx Pxx Pyy Pzz Temp COM1x[1] COM1x[2] COM1x[3] COM2x[1] COM2x[2] COM2x[3] COM3x[1] COM3x[2] COM3x[3] COM4x[1] COM4x[2] COM4x[3] COM5x[1] COM5x[2] COM5x[3] COMall[1 COMall[2 COMall[3
472.071 -77.352 -69.6007 -3.61122 303.719 6.04219 -1.36169 -19.4256 -229.633 -1.31658 -19.3896 6.04154 -1.37059 -9.62349 -229.634 -1.31661 -9.39895 201.704 -1.2678 -19.4713 2.77192 -1.31615 -469.901
Loop time of 12424.2 on 512 procs for 1000000 steps with 812572 atoms
