fission-0210
fission-0210
fission-0210
fission-0210
fission-0210
fission-0210
fission-0210
fission-0210
fission-0210
fission-0210
fission-0210
fission-0210
fission-0210
fission-0210
fission-0210
fission-0210
fission-0210
fission-0210
fission-0210
fission-0210
fission-0210
fission-0210
fission-0210
fission-0210
fission-0210
fission-0210
fission-0210
fission-0210
fission-0210
fission-0210
fission-0210
fission-0210
fission-0215
fission-0215
fission-0215
fission-0215
fission-0215
fission-0215
fission-0215
fission-0215
fission-0215
fission-0215
fission-0215
fission-0215
fission-0215
fission-0215
fission-0215
fission-0215
fission-0215
fission-0215
fission-0215
fission-0215
fission-0215
fission-0215
fission-0215
fission-0215
fission-0215
fission-0215
fission-0215
fission-0215
fission-0215
fission-0215
fission-0215
fission-0215
fission-0208
fission-0208
fission-0208
fission-0208
fission-0208
fission-0208
fission-0208
fission-0208
fission-0208
fission-0208
fission-0208
fission-0208
fission-0208
fission-0208
fission-0208
fission-0208
fission-0208
fission-0208
fission-0208
fission-0208
fission-0208
fission-0208
fission-0208
fission-0208
fission-0208
fission-0208
fission-0208
fission-0208
fission-0208
fission-0208
fission-0208
fission-0208
fission-0213
fission-0213
fission-0213
fission-0213
fission-0213
fission-0213
fission-0213
fission-0213
fission-0213
fission-0213
fission-0213
fission-0213
fission-0213
fission-0213
fission-0213
fission-0213
fission-0213
fission-0213
fission-0213
fission-0213
fission-0213
fission-0213
fission-0213
fission-0213
fission-0213
fission-0213
fission-0213
fission-0213
fission-0213
fission-0213
fission-0213
fission-0213
fission-0219
fission-0219
fission-0219
fission-0219
fission-0219
fission-0219
fission-0219
fission-0219
fission-0219
fission-0219
fission-0219
fission-0219
fission-0219
fission-0219
fission-0219
fission-0219
fission-0219
fission-0219
fission-0219
fission-0219
fission-0219
fission-0219
fission-0219
fission-0219
fission-0219
fission-0219
fission-0219
fission-0219
fission-0219
fission-0219
fission-0219
fission-0219
fission-0211
fission-0211
fission-0211
fission-0211
fission-0211
fission-0211
fission-0211
fission-0211
fission-0211
fission-0211
fission-0211
fission-0211
fission-0211
fission-0211
fission-0211
fission-0211
fission-0211
fission-0211
fission-0211
fission-0211
fission-0211
fission-0211
fission-0211
fission-0211
fission-0211
fission-0211
fission-0211
fission-0211
fission-0211
fission-0211
fission-0211
fission-0211
fission-0212
fission-0212
fission-0212
fission-0212
fission-0212
fission-0212
fission-0212
fission-0212
fission-0212
fission-0212
fission-0212
fission-0212
fission-0212
fission-0212
fission-0212
fission-0212
fission-0212
fission-0212
fission-0212
fission-0212
fission-0212
fission-0212
fission-0212
fission-0212
fission-0212
fission-0212
fission-0212
fission-0212
fission-0212
fission-0212
fission-0212
fission-0212
fission-0220
fission-0220
fission-0220
fission-0220
fission-0220
fission-0220
fission-0220
fission-0220
fission-0220
fission-0220
fission-0220
fission-0220
fission-0220
fission-0220
fission-0220
fission-0220
fission-0220
fission-0220
fission-0220
fission-0220
fission-0220
fission-0220
fission-0220
fission-0220
fission-0220
fission-0220
fission-0220
fission-0220
fission-0220
fission-0220
fission-0220
fission-0220
fission-0223
fission-0223
fission-0223
fission-0223
fission-0223
fission-0223
fission-0223
fission-0223
fission-0223
fission-0223
fission-0223
fission-0223
fission-0223
fission-0223
fission-0223
fission-0223
fission-0223
fission-0223
fission-0223
fission-0223
fission-0223
fission-0223
fission-0223
fission-0223
fission-0223
fission-0223
fission-0223
fission-0223
fission-0223
fission-0223
fission-0223
fission-0223
fission-0221
fission-0221
fission-0221
fission-0221
fission-0221
fission-0221
fission-0221
fission-0221
fission-0221
fission-0221
fission-0221
fission-0221
fission-0221
fission-0221
fission-0221
fission-0221
fission-0221
fission-0221
fission-0221
fission-0221
fission-0221
fission-0221
fission-0221
fission-0221
fission-0221
fission-0221
fission-0221
fission-0221
fission-0221
fission-0221
fission-0221
fission-0221
fission-0204
fission-0204
fission-0204
fission-0204
fission-0204
fission-0204
fission-0204
fission-0204
fission-0204
fission-0204
fission-0204
fission-0204
fission-0204
fission-0204
fission-0204
fission-0204
fission-0204
fission-0204
fission-0204
fission-0204
fission-0204
fission-0204
fission-0204
fission-0204
fission-0204
fission-0204
fission-0204
fission-0204
fission-0204
fission-0204
fission-0204
fission-0204
fission-0200
fission-0200
fission-0200
fission-0200
fission-0200
fission-0200
fission-0200
fission-0200
fission-0200
fission-0200
fission-0200
fission-0200
fission-0200
fission-0200
fission-0200
fission-0200
fission-0200
fission-0200
fission-0200
fission-0200
fission-0200
fission-0200
fission-0200
fission-0200
fission-0200
fission-0200
fission-0200
fission-0200
fission-0200
fission-0200
fission-0200
fission-0200
fission-0198
fission-0198
fission-0198
fission-0198
fission-0198
fission-0198
fission-0198
fission-0198
fission-0198
fission-0198
fission-0198
fission-0198
fission-0198
fission-0198
fission-0198
fission-0198
fission-0198
fission-0198
fission-0198
fission-0198
fission-0198
fission-0198
fission-0198
fission-0198
fission-0198
fission-0198
fission-0198
fission-0198
fission-0198
fission-0198
fission-0198
fission-0198
fission-0199
fission-0199
fission-0199
fission-0199
fission-0199
fission-0199
fission-0199
fission-0199
fission-0199
fission-0199
fission-0199
fission-0199
fission-0199
fission-0199
fission-0199
fission-0199
fission-0199
fission-0199
fission-0199
fission-0199
fission-0199
fission-0199
fission-0199
fission-0199
fission-0199
fission-0199
fission-0199
fission-0199
fission-0199
fission-0199
fission-0199
fission-0199
fission-0201
fission-0201
fission-0201
fission-0201
fission-0201
fission-0201
fission-0201
fission-0201
fission-0201
fission-0201
fission-0201
fission-0201
fission-0201
fission-0201
fission-0201
fission-0201
fission-0201
fission-0201
fission-0201
fission-0201
fission-0201
fission-0201
fission-0201
fission-0201
fission-0201
fission-0201
fission-0201
fission-0201
fission-0201
fission-0201
fission-0201
fission-0201
fission-0203
fission-0203
fission-0203
fission-0203
fission-0203
fission-0203
fission-0203
fission-0203
fission-0203
fission-0203
fission-0203
fission-0203
fission-0203
fission-0203
fission-0203
fission-0203
fission-0203
fission-0203
fission-0203
fission-0203
fission-0203
fission-0203
fission-0203
fission-0203
fission-0203
fission-0203
fission-0203
fission-0203
fission-0203
fission-0203
fission-0203
fission-0203

The following PBS extra args (PBS_EXTRA_ARGS) will be used: -P ldrd
The following lammps extra args (LAMMPS_EXTRA_ARGS) will be used:
LAMMPS (16 Feb 2016)
#log		log.c
units           metal
dimension       3
boundary        p p p
atom_style      atomic
shell         mkdir  cfg
shell         mkdir  dump

# ----------------------- ATOM DEFINITION & Force Field -------------
lattice         fcc 3.615 #origin 0.0 0.0 0.0 orient x 1 -1 0 orient y 1 1 -2 orient z 1 1 1
Lattice spacing in x,y,z = 3.615 3.615 3.615
variable        Lx equal 65
variable        Ly equal 3
variable        Lz equal 260
variable        boxLZ equal 270
region          SYSTEM block -65 65 -3 3 -260 0 units lattice
region          BOX block -65 65 -3 3 -270 5 units lattice
create_box      1 BOX
Created orthogonal box = (-234.975 -10.845 -976.05) to (234.975 10.845 18.075)
create_atoms    1 region SYSTEM
Created 812760 atoms

delete_atoms     porosity BOX 0.0001 20420
Deleted 91 atoms, new total = 812669

#---------------------------------------------------------------------

pair_style      eam/alloy
pair_coeff  	  * * Cu01.eam.alloy Cu

#----------------------------------------------------------------------
velocity       all create 300.0 6570 mom yes rot yes dist gaussian
fix             1 all npt temp 300 300 0.1 iso 0.0 0.0 2
run      10000
  1 neighbor list requests
  update every 1 steps, delay 10 steps, check yes
Setting up Verlet run ...
  Unit style  : metal
  Current step: 0
  Time step   : 0.001
Step Temp E_pair E_mol TotEng Press Volume
0          300   -2875010.6            0   -2843496.9    2967.2977     10133330
Loop time of 125.991 on 512 procs for 10000 steps with 812669 atoms

unfix 1

fix            2 all nvt temp 300.0 300.0 0.1

run      10000
Setting up Verlet run ...
  Unit style  : metal
  Current step: 10000
  Time step   : 0.001
Step Temp E_pair E_mol TotEng Press
10000    299.76024   -2842841.6            0   -2811353.1    26.311451
Loop time of 123.107 on 512 procs for 10000 steps with 812669 atoms

reset_timestep 0
unfix    2
#---------------------- DEFINE Laser GERION and GROUP ----------------
region       R1  block -75  75  INF  INF  INF  5  units box
group        G1 region R1
259421 atoms in group G1
group        G2 subtract all G1
553248 atoms in group G2

#define     temperature/pressure calculation  group
variable    x1atom atom "x>=0  &&  x<4 &&  z>-40 && z<1"     ##NEW!!!!!!!!!!!!
variable    x2atom atom "x>=-234.98  &&  x<-230.98 &&  z>-40 && z<1"
variable    x3atom atom "x>=0  &&  x<4 &&  z>-20 && z<1"
variable    x4atom atom "x>=-234.98  &&  x<-230.98 &&  z>-20 && z<1"
variable    x5atom atom "x>=196  &&  x<200 &&  z>-40 && z<1"

group       x1atom variable x1atom
373 atoms in group x1atom
group       x2atom variable x2atom
276 atoms in group x2atom
group       x3atom variable x3atom
187 atoms in group x3atom
group       x4atom variable x4atom
144 atoms in group x4atom
group       x5atom variable x5atom
405 atoms in group x5atom

compute      COM1x x1atom com
compute      COM2x x2atom com
compute      COM3x x3atom com
compute      COM4x x4atom com
compute      COM5x x5atom com

compute      COMall all com

#Temperature profile
#variable      Tprofile atom 300*(1+(step/5000)*2.5*exp(z/40))
#variable tmp equal "lz"
variable      Tprofile atom  300+600*(step/5000)*exp(z/40)*exp(-x*x/1289)

# ------------------------- SETTINGS ---------------------------------
thermo          100
thermo_style    custom step lx pxx pyy pzz temp c_COM1x[1] c_COM1x[2] c_COM1x[3] c_COM2x[1] c_COM2x[2] c_COM2x[3] c_COM3x[1] c_COM3x[2] c_COM3x[3] c_COM4x[1] c_COM4x[2] c_COM4x[3]  c_COM5x[1] c_COM5x[2] c_COM5x[3] c_COMall[1] c_COMall[2] c_COMall[3]

timestep       0.002

compute dispall all displace/atom
# ---------------- Run Laser Material Interaction --------------------
#dump          1 all custom 1000 dump/z1dump.atom id type x y z c_dispall[1]  c_dispall[2]  c_dispall[3] c_dispall[4]
#dump          2 all cfg 100 cfg/*.cfg mass type xs ys zs
#dump_modify   2 element Al

#relax for 2 PS
#fix           1 all nvt temp 300.0 300.0 0.1
#run  1000
#unfix         1

fix           1  all nve
fix           3temp  all  langevin  v_Tprofile  0  0.1  378411   #TEST ALL
run           5000
Setting up Verlet run ...
  Unit style  : metal
  Current step: 0
  Time step   : 0.002
Step Lx Pxx Pyy Pzz Temp COM1x[1] COM1x[2] COM1x[3] COM2x[1] COM2x[2] COM2x[3] COM3x[1] COM3x[2] COM3x[3] COM4x[1] COM4x[2] COM4x[3] COM5x[1] COM5x[2] COM5x[3] COMall[1 COMall[2 COMall[3
0    472.05824   -489.66525   -474.59825   -517.67177    299.78568    2.0752112    -1.116412   -19.739619   -233.23615  -0.84144553    -19.30815    2.1335847   -1.2713605   -9.4738481   -233.21827  -0.84097648   -9.3046949    197.98964  -0.89255372   -19.224252  -0.90614993  -0.90780319   -469.91145
Averages over the last 26 of 51 rows, steps 2500 to 5000:
Lx Pxx Pyy Pzz Temp COM1x[1] COM1x[2] COM1x[3] COM2x[1] COM2x[2] COM2x[3] COM3x[1] COM3x[2] COM3x[3] COM4x[1] COM4x[2] COM4x[3] COM5x[1] COM5x[2] COM5x[3] COMall[1 COMall[2 COMall[3
472.058 -338.69 -329.984 -394.641 302.717 2.06257 -1.04547 -19.7195 -233.231 -0.838074 -19.2587 2.13667 -1.1647 -9.40089 -233.225 -0.845364 -9.26957 197.97 -0.860767 -19.1857 -0.907822 -0.90753 -469.912
Loop time of 67.1002 on 512 procs for 5000 steps with 812669 atoms

variable  com1_x equal "c_COM1x[1]"
variable  com1_y equal "c_COM1x[2]"
variable  com1_z equal "c_COM1x[3]"
variable  com2_x equal "c_COM2x[1]"
variable  com2_y equal "c_COM2x[2]"
variable  com2_z equal "c_COM2x[3]"
variable  com3_x equal "c_COM3x[1]"
variable  com3_y equal "c_COM3x[2]"
variable  com3_z equal "c_COM3x[3]"
variable  com4_x equal "c_COM4x[1]"
variable  com4_y equal "c_COM4x[2]"
variable  com4_z equal "c_COM4x[3]"
variable  com5_x equal "c_COM5x[1]"
variable  com5_y equal "c_COM5x[2]"
variable  com5_z equal "c_COM5x[3]"
variable  comall_x equal "c_COMall[1]"
variable  comall_y equal "c_COMall[2]"
variable  comall_z equal "c_COMall[3]"

#-------------------------- Wave Propagation -------------------------
unfix        3temp
run          1000000
Setting up Verlet run ...
  Unit style  : metal
  Current step: 5000
  Time step   : 0.002
Step Lx Pxx Pyy Pzz Temp COM1x[1] COM1x[2] COM1x[3] COM2x[1] COM2x[2] COM2x[3] COM3x[1] COM3x[2] COM3x[3] COM4x[1] COM4x[2] COM4x[3] COM5x[1] COM5x[2] COM5x[3] COMall[1 COMall[2 COMall[3
5000    472.05824   -244.31913   -242.00336   -291.57585    303.64549    2.0681272   -1.0323452   -19.701357   -233.23134  -0.86527356   -19.258833    2.1452209   -1.1751774   -9.3227668   -233.19691  -0.86259328   -9.2428249    197.97129  -0.85344399   -19.189264  -0.90704088  -0.90922887   -469.91504
Averages over the last 5001 of 10001 rows, steps 505000 to 1005000:
Lx Pxx Pyy Pzz Temp COM1x[1] COM1x[2] COM1x[3] COM2x[1] COM2x[2] COM2x[3] COM3x[1] COM3x[2] COM3x[3] COM4x[1] COM4x[2] COM4x[3] COM5x[1] COM5x[2] COM5x[3] COMall[1 COMall[2 COMall[3
472.058 -32.5423 -25.5309 -3.82295 303.927 4.16576 0.479515 -17.8917 -231.156 0.568943 -17.4573 4.24846 0.341543 -7.61657 -231.155 0.568818 -7.46483 200.074 0.575778 -17.4255 1.24413 0.569035 -468.011
Loop time of 12270.8 on 512 procs for 1000000 steps with 812669 atoms
