fission-0224
fission-0224
fission-0224
fission-0224
fission-0224
fission-0224
fission-0224
fission-0224
fission-0224
fission-0224
fission-0224
fission-0224
fission-0224
fission-0224
fission-0224
fission-0224
fission-0224
fission-0224
fission-0224
fission-0224
fission-0224
fission-0224
fission-0224
fission-0224
fission-0224
fission-0224
fission-0224
fission-0224
fission-0224
fission-0224
fission-0224
fission-0224
fission-0278
fission-0278
fission-0278
fission-0278
fission-0278
fission-0278
fission-0278
fission-0278
fission-0278
fission-0278
fission-0278
fission-0278
fission-0278
fission-0278
fission-0278
fission-0278
fission-0278
fission-0278
fission-0278
fission-0278
fission-0278
fission-0278
fission-0278
fission-0278
fission-0278
fission-0278
fission-0278
fission-0278
fission-0278
fission-0278
fission-0278
fission-0278
fission-0158
fission-0158
fission-0158
fission-0158
fission-0158
fission-0158
fission-0158
fission-0158
fission-0158
fission-0158
fission-0158
fission-0158
fission-0158
fission-0158
fission-0158
fission-0158
fission-0158
fission-0158
fission-0158
fission-0158
fission-0158
fission-0158
fission-0158
fission-0158
fission-0158
fission-0158
fission-0158
fission-0158
fission-0158
fission-0158
fission-0158
fission-0158
fission-0244
fission-0244
fission-0244
fission-0244
fission-0244
fission-0244
fission-0244
fission-0244
fission-0244
fission-0244
fission-0244
fission-0244
fission-0244
fission-0244
fission-0244
fission-0244
fission-0244
fission-0244
fission-0244
fission-0244
fission-0244
fission-0244
fission-0244
fission-0244
fission-0244
fission-0244
fission-0244
fission-0244
fission-0244
fission-0244
fission-0244
fission-0244
fission-0107
fission-0107
fission-0107
fission-0107
fission-0107
fission-0107
fission-0107
fission-0107
fission-0107
fission-0107
fission-0107
fission-0107
fission-0107
fission-0107
fission-0107
fission-0107
fission-0107
fission-0107
fission-0107
fission-0107
fission-0107
fission-0107
fission-0107
fission-0107
fission-0107
fission-0107
fission-0107
fission-0107
fission-0107
fission-0107
fission-0107
fission-0107
fission-0269
fission-0269
fission-0269
fission-0269
fission-0269
fission-0269
fission-0269
fission-0269
fission-0269
fission-0269
fission-0269
fission-0269
fission-0269
fission-0269
fission-0269
fission-0269
fission-0269
fission-0269
fission-0269
fission-0269
fission-0269
fission-0269
fission-0269
fission-0269
fission-0269
fission-0269
fission-0269
fission-0269
fission-0269
fission-0269
fission-0269
fission-0269
fission-0225
fission-0225
fission-0225
fission-0225
fission-0225
fission-0225
fission-0225
fission-0225
fission-0225
fission-0225
fission-0225
fission-0225
fission-0225
fission-0225
fission-0225
fission-0225
fission-0225
fission-0225
fission-0225
fission-0225
fission-0225
fission-0225
fission-0225
fission-0225
fission-0225
fission-0225
fission-0225
fission-0225
fission-0225
fission-0225
fission-0225
fission-0225
fission-0229
fission-0229
fission-0229
fission-0229
fission-0229
fission-0229
fission-0229
fission-0229
fission-0229
fission-0229
fission-0229
fission-0229
fission-0229
fission-0229
fission-0229
fission-0229
fission-0229
fission-0229
fission-0229
fission-0229
fission-0229
fission-0229
fission-0229
fission-0229
fission-0229
fission-0229
fission-0229
fission-0229
fission-0229
fission-0229
fission-0229
fission-0229
fission-0231
fission-0231
fission-0231
fission-0231
fission-0231
fission-0231
fission-0231
fission-0231
fission-0231
fission-0231
fission-0231
fission-0231
fission-0231
fission-0231
fission-0231
fission-0231
fission-0231
fission-0231
fission-0231
fission-0231
fission-0231
fission-0231
fission-0231
fission-0231
fission-0231
fission-0231
fission-0231
fission-0231
fission-0231
fission-0231
fission-0231
fission-0231
fission-0305
fission-0305
fission-0305
fission-0305
fission-0305
fission-0305
fission-0305
fission-0305
fission-0305
fission-0305
fission-0305
fission-0305
fission-0305
fission-0305
fission-0305
fission-0305
fission-0305
fission-0305
fission-0305
fission-0305
fission-0305
fission-0305
fission-0305
fission-0305
fission-0305
fission-0305
fission-0305
fission-0305
fission-0305
fission-0305
fission-0305
fission-0305
fission-0356
fission-0356
fission-0356
fission-0356
fission-0356
fission-0356
fission-0356
fission-0356
fission-0356
fission-0356
fission-0356
fission-0356
fission-0356
fission-0356
fission-0356
fission-0356
fission-0356
fission-0356
fission-0356
fission-0356
fission-0356
fission-0356
fission-0356
fission-0356
fission-0356
fission-0356
fission-0356
fission-0356
fission-0356
fission-0356
fission-0356
fission-0356
fission-0268
fission-0268
fission-0268
fission-0268
fission-0268
fission-0268
fission-0268
fission-0268
fission-0268
fission-0268
fission-0268
fission-0268
fission-0268
fission-0268
fission-0268
fission-0268
fission-0268
fission-0268
fission-0268
fission-0268
fission-0268
fission-0268
fission-0268
fission-0268
fission-0268
fission-0268
fission-0268
fission-0268
fission-0268
fission-0268
fission-0268
fission-0268
fission-0071
fission-0071
fission-0071
fission-0071
fission-0071
fission-0071
fission-0071
fission-0071
fission-0071
fission-0071
fission-0071
fission-0071
fission-0071
fission-0071
fission-0071
fission-0071
fission-0071
fission-0071
fission-0071
fission-0071
fission-0071
fission-0071
fission-0071
fission-0071
fission-0071
fission-0071
fission-0071
fission-0071
fission-0071
fission-0071
fission-0071
fission-0071
fission-0066
fission-0066
fission-0066
fission-0066
fission-0066
fission-0066
fission-0066
fission-0066
fission-0066
fission-0066
fission-0066
fission-0066
fission-0066
fission-0066
fission-0066
fission-0066
fission-0066
fission-0066
fission-0066
fission-0066
fission-0066
fission-0066
fission-0066
fission-0066
fission-0066
fission-0066
fission-0066
fission-0066
fission-0066
fission-0066
fission-0066
fission-0066
fission-0165
fission-0165
fission-0165
fission-0165
fission-0165
fission-0165
fission-0165
fission-0165
fission-0165
fission-0165
fission-0165
fission-0165
fission-0165
fission-0165
fission-0165
fission-0165
fission-0165
fission-0165
fission-0165
fission-0165
fission-0165
fission-0165
fission-0165
fission-0165
fission-0165
fission-0165
fission-0165
fission-0165
fission-0165
fission-0165
fission-0165
fission-0165
fission-0160
fission-0160
fission-0160
fission-0160
fission-0160
fission-0160
fission-0160
fission-0160
fission-0160
fission-0160
fission-0160
fission-0160
fission-0160
fission-0160
fission-0160
fission-0160
fission-0160
fission-0160
fission-0160
fission-0160
fission-0160
fission-0160
fission-0160
fission-0160
fission-0160
fission-0160
fission-0160
fission-0160
fission-0160
fission-0160
fission-0160
fission-0160

The following PBS extra args (PBS_EXTRA_ARGS) will be used: -P ldrd
The following lammps extra args (LAMMPS_EXTRA_ARGS) will be used:
LAMMPS (16 Feb 2016)
#log		log.c
units           metal
dimension       3
boundary        p p p
atom_style      atomic
shell         mkdir  cfg
shell         mkdir  dump

# ----------------------- ATOM DEFINITION & Force Field -------------
# ----------------------- ATOM DEFINITION ----------------------------
lattice         fcc 4.024845358 #origin 0.0 0.0 0.0 orient x 1 -1 0 orient y 1 1 -2 orient z 1 1 1
Lattice spacing in x,y,z = 4.02485 4.02485 4.02485
variable        Lx equal 52
variable        Ly equal 2
variable        Lz equal 208
variable        boxLZ equal 218
region          SYSTEM block -52 52 -2 2 -208 0 units lattice
region          BOX block -52 52 -2 2 -218 5 units lattice
create_box      1 BOX
Created orthogonal box = (-209.292 -8.04969 -877.416) to (209.292 8.04969 20.1242)
create_atoms    1 region SYSTEM
Created 346944 atoms

delete_atoms     porosity BOX 0.001 13680    ##random seed <RAND1>
Deleted 371 atoms, new total = 346573

#---------------------------------------------------------------------------------
pair_style      eam/alloy
pair_coeff  	  * * Al_wkg_MSMSE_2009.set Al

#----------------------------------------------------------------------------------
velocity       all create 300.0 21900 mom yes rot yes dist gaussian         ##random seed <RAND2>

fix             1 all npt temp 300 300 0.1 iso 0.0 0.0 2
run      10000
  1 neighbor list requests
  update every 1 steps, delay 10 steps, check yes
Setting up Verlet run ...
  Unit style  : metal
  Current step: 0
  Time step   : 0.001
Step Temp E_pair E_mol TotEng Press Volume
0          300    -915969.7            0   -902530.32    1871.8668    6048473.6
Loop time of 62.1869 on 512 procs for 10000 steps with 346573 atoms

unfix 1

fix            2 all nvt temp 300.0 300.0 0.1

run      10000
Setting up Verlet run ...
  Unit style  : metal
  Current step: 10000
  Time step   : 0.001
Step Temp E_pair E_mol TotEng Press
10000    299.69712   -901924.46            0   -888498.64    8.8343643
Loop time of 61.4314 on 512 procs for 10000 steps with 346573 atoms

reset_timestep 0
unfix    2
#---------------------- DEFINE Laser GERION and GROUP ----------------
region       R1  block -75  75  INF  INF  INF  5  units box
group        G1 region R1
123574 atoms in group G1
group        G2 subtract all G1
222999 atoms in group G2

#define     temperature/pressure calculation  group
variable    x1atom atom "x>=0  &&  x<4 &&  z>-40 && z<1"     ##NEW!!!!!!!!!!!!
variable    x2atom atom "x>=-209.292  &&  x<-205.292 &&  z>-40 && z<1"
variable    x3atom atom "x>=0  &&  x<4 &&  z>-20 && z<1"
variable    x4atom atom "x>=-209.292  &&  x<-205.292 &&  z>-20 && z<1"
variable    x5atom atom "x>=196  &&  x<200 &&  z>-40 && z<1"

group       x1atom variable x1atom
150 atoms in group x1atom
group       x2atom variable x2atom
160 atoms in group x2atom
group       x3atom variable x3atom
74 atoms in group x3atom
group       x4atom variable x4atom
80 atoms in group x4atom
group       x5atom variable x5atom
160 atoms in group x5atom

compute      COM1x x1atom com
compute      COM2x x2atom com
compute      COM3x x3atom com
compute      COM4x x4atom com
compute      COM5x x5atom com

compute      COMall all com

#Temperature profile
#variable      Tprofile atom 300*(1+(step/5000)*2.5*exp(z/40))
variable      Tprofile atom 300*(1+(step/5000)*2.5*exp(z/75))

# ------------------------- SETTINGS ---------------------------------
thermo          100
thermo_style    custom step lx pxx pyy pzz temp c_COM1x[1] c_COM1x[2] c_COM1x[3] c_COM2x[1] c_COM2x[2] c_COM2x[3] c_COM3x[1] c_COM3x[2] c_COM3x[3] c_COM4x[1] c_COM4x[2] c_COM4x[3]  c_COM5x[1] c_COM5x[2] c_COM5x[3] c_COMall[1] c_COMall[2] c_COMall[3]

timestep       0.002

compute dispall all displace/atom
# ---------------- Run Laser Material Interaction --------------------
#dump          1 all custom 1000 dump/z1dump.atom id type x y z c_dispall[1]  c_dispall[2]  c_dispall[3] c_dispall[4]
#dump          2 all cfg 100 cfg/*.cfg mass type xs ys zs
#dump_modify   2 element Al

#relax for 2 PS
#fix           1 all nvt temp 300.0 300.0 0.1
#run  1000
#unfix         1

fix           1  all nve
fix           3temp  G1  langevin  v_Tprofile  0  0.1  378411   #TEST ALL
run           5000
Setting up Verlet run ...
  Unit style  : metal
  Current step: 0
  Time step   : 0.002
Step Lx Pxx Pyy Pzz Temp COM1x[1] COM1x[2] COM1x[3] COM2x[1] COM2x[2] COM2x[3] COM3x[1] COM3x[2] COM3x[3] COM4x[1] COM4x[2] COM4x[3] COM5x[1] COM5x[2] COM5x[3] COMall[1 COMall[2 COMall[3
0     421.5171    184.08805    161.05766   -128.02717    300.21279    2.2124612  -0.96286049   -20.090231   -207.66849   -1.1074663   -19.904552    2.1505947  -0.82132488   -9.9403718   -207.66997   -1.1411671   -9.7608881    197.58275   -1.1336129   -19.910418   -1.0133763   -1.0131365   -418.50285
Averages over the last 26 of 51 rows, steps 2500 to 5000:
Lx Pxx Pyy Pzz Temp COM1x[1] COM1x[2] COM1x[3] COM2x[1] COM2x[2] COM2x[3] COM3x[1] COM3x[2] COM3x[3] COM4x[1] COM4x[2] COM4x[3] COM5x[1] COM5x[2] COM5x[3] COMall[1 COMall[2 COMall[3
421.517 1128.17 1083.7 541.084 321.936 2.19472 -1.00607 -19.8091 -207.743 -0.912669 -19.7538 2.08088 -0.854667 -9.42264 -207.743 -0.919948 -9.59199 197.628 -0.894234 -19.7399 -1.02358 -1.00831 -418.516
Loop time of 31.4108 on 512 procs for 5000 steps with 346573 atoms

variable  com1_x equal "c_COM1x[1]"
variable  com1_y equal "c_COM1x[2]"
variable  com1_z equal "c_COM1x[3]"
variable  com2_x equal "c_COM2x[1]"
variable  com2_y equal "c_COM2x[2]"
variable  com2_z equal "c_COM2x[3]"
variable  com3_x equal "c_COM3x[1]"
variable  com3_y equal "c_COM3x[2]"
variable  com3_z equal "c_COM3x[3]"
variable  com4_x equal "c_COM4x[1]"
variable  com4_y equal "c_COM4x[2]"
variable  com4_z equal "c_COM4x[3]"
variable  com5_x equal "c_COM5x[1]"
variable  com5_y equal "c_COM5x[2]"
variable  com5_z equal "c_COM5x[3]"
variable  comall_x equal "c_COMall[1]"
variable  comall_y equal "c_COMall[2]"
variable  comall_z equal "c_COMall[3]"

#-------------------------- Wave Propagation -------------------------
unfix        3temp
run          1000000
Setting up Verlet run ...
  Unit style  : metal
  Current step: 5000
  Time step   : 0.002
Step Lx Pxx Pyy Pzz Temp COM1x[1] COM1x[2] COM1x[3] COM2x[1] COM2x[2] COM2x[3] COM3x[1] COM3x[2] COM3x[3] COM4x[1] COM4x[2] COM4x[3] COM5x[1] COM5x[2] COM5x[3] COMall[1 COMall[2 COMall[3
5000     421.5171    1516.2762    1433.9911    793.75098    330.28681    2.1602943  -0.90652701   -19.656401   -207.73329  -0.91355644   -19.633622    2.0779049  -0.81428294   -9.1010409    -207.7525  -0.92331792   -9.4940624    197.65927  -0.84393482   -19.590162   -1.0251439   -1.0093012   -418.52139
Averages over the last 1854 of 3707 rows, steps 190300 to 375600:
Lx Pxx Pyy Pzz Temp COM1x[1] COM1x[2] COM1x[3] COM2x[1] COM2x[2] COM2x[3] COM3x[1] COM3x[2] COM3x[3] COM4x[1] COM4x[2] COM4x[3] COM5x[1] COM5x[2] COM5x[3] COMall[1 COMall[2 COMall[3
421.517 1065.64 1042.43 -3.99782 331.136 -4.4972 -0.799142 -26.3869 -214.448 -0.759958 -25.9682 -4.53916 -0.703695 -16.1893 -214.446 -0.759975 -15.7965 190.858 -0.759277 -25.9721 -7.7422 -0.765138 -425.447
[0<-86] recv desc error, wc_opcode=10975
[0->86] wc.status=12, wc.wr_id=0x12125108, wc.opcode=10975, vbuf->phead->type=0 = MPIDI_CH3_PKT_EAGER_SEND
[fission-0244:mpi_rank_118][MPIDI_CH3I_MRAILI_Cq_poll] src/mpid/ch3/channels/mrail/src/gen2/ibv_channel_manager.c:586: [] Got completion with error 12, vendor code=0x81, dest rank=86
: No such file or directory (2)
[0<-88] recv desc error, wc_opcode=10929
[0->88] wc.status=12, wc.wr_id=0xac6bc30, wc.opcode=10929, vbuf->phead->type=0 = MPIDI_CH3_PKT_EAGER_SEND
[fission-0244:mpi_rank_120][MPIDI_CH3I_MRAILI_Cq_poll] src/mpid/ch3/channels/mrail/src/gen2/ibv_channel_manager.c:586: [] Got completion with error 12, vendor code=0x81, dest rank=88
: No such file or directory (2)
[0<-89] recv desc error, wc_opcode=11105
[0->89] wc.status=12, wc.wr_id=0x14ac1c30, wc.opcode=11105, vbuf->phead->type=0 = MPIDI_CH3_PKT_EAGER_SEND
[0<-95] recv desc error, wc_opcode=11102
[0->95] wc.status=12, wc.wr_id=0x388ac30, wc.opcode=11102, vbuf->phead->type=2 = MPIDI_CH3_PKT_FAST_EAGER_SEND
[0<-75] recv desc error, wc_opcode=11120
[0->75] wc.status=12, wc.wr_id=0xd7d4200, wc.opcode=11120, vbuf->phead->type=0 = MPIDI_CH3_PKT_EAGER_SEND
[0<-82] recv desc error, wc_opcode=10955
[0->82] wc.status=12, wc.wr_id=0x1cea15e0, wc.opcode=10955, vbuf->phead->type=0 = MPIDI_CH3_PKT_EAGER_SEND
[0<-92] recv desc error, wc_opcode=10925
[0->92] wc.status=12, wc.wr_id=0x19455f18, wc.opcode=10925, vbuf->phead->type=0 = MPIDI_CH3_PKT_EAGER_SEND
[fission-0244:mpi_rank_124][MPIDI_CH3I_MRAILI_Cq_poll] src/mpid/ch3/channels/mrail/src/gen2/ibv_channel_manager.c:586: [] Got completion with error 12, vendor code=0x81, dest rank=92
: No such file or directory (2)
[fission-0244:mpi_rank_107][MPIDI_CH3I_MRAILI_Cq_poll] src/mpid/ch3/channels/mrail/src/gen2/ibv_channel_manager.c:586: [] Got completion with error 12, vendor code=0x81, dest rank=75
: No such file or directory (2)
[fission-0244:mpi_rank_121][MPIDI_CH3I_MRAILI_Cq_poll] src/mpid/ch3/channels/mrail/src/gen2/ibv_channel_manager.c:586: [] Got completion with error 12, vendor code=0x81, dest rank=89
: No such file or directory (2)
[0<-90] recv desc error, wc_opcode=11097
[0->90] wc.status=12, wc.wr_id=0x168734e8, wc.opcode=11097, vbuf->phead->type=0 = MPIDI_CH3_PKT_EAGER_SEND
[fission-0244:mpi_rank_122][MPIDI_CH3I_MRAILI_Cq_poll] src/mpid/ch3/channels/mrail/src/gen2/ibv_channel_manager.c:586: [] Got completion with error 12, vendor code=0x81, dest rank=90
: No such file or directory (2)
[0<-91] recv desc error, wc_opcode=11004
[0->91] wc.status=12, wc.wr_id=0x1358a5e0, wc.opcode=11004, vbuf->phead->type=0 = MPIDI_CH3_PKT_EAGER_SEND
[fission-0244:mpi_rank_123][MPIDI_CH3I_MRAILI_Cq_poll] src/mpid/ch3/channels/mrail/src/gen2/ibv_channel_manager.c:586: [] Got completion with error 12, vendor code=0x81, dest rank=91
: No such file or directory (2)
[fission-0244:mpi_rank_127][MPIDI_CH3I_MRAILI_Cq_poll] src/mpid/ch3/channels/mrail/src/gen2/ibv_channel_manager.c:586: [] Got completion with error 12, vendor code=0x81, dest rank=95
: No such file or directory (2)
[0<-73] recv desc error, wc_opcode=11128
[0->73] wc.status=12, wc.wr_id=0xd8fe200, wc.opcode=11128, vbuf->phead->type=0 = MPIDI_CH3_PKT_EAGER_SEND
[0<-74] recv desc error, wc_opcode=11161
[0->74] wc.status=12, wc.wr_id=0x7b987d0, wc.opcode=11161, vbuf->phead->type=0 = MPIDI_CH3_PKT_EAGER_SEND
[fission-0244:mpi_rank_106][MPIDI_CH3I_MRAILI_Cq_poll] src/mpid/ch3/channels/mrail/src/gen2/ibv_channel_manager.c:586: [] Got completion with error 12, vendor code=0x81, dest rank=74
: No such file or directory (2)
[0<-80] recv desc error, wc_opcode=11125
[0->80] wc.status=12, wc.wr_id=0x22a6d28, wc.opcode=11125, vbuf->phead->type=0 = MPIDI_CH3_PKT_EAGER_SEND
[fission-0244:mpi_rank_114][MPIDI_CH3I_MRAILI_Cq_poll] src/mpid/ch3/channels/mrail/src/gen2/ibv_channel_manager.c:586: [] Got completion with error 12, vendor code=0x81, dest rank=82
: No such file or directory (2)
[0<-94] recv desc error, wc_opcode=11042
[0->94] wc.status=12, wc.wr_id=0x1bbb5ee0, wc.opcode=11042, vbuf->phead->type=0 = MPIDI_CH3_PKT_EAGER_SEND
[fission-0244:mpi_rank_105][MPIDI_CH3I_MRAILI_Cq_poll] src/mpid/ch3/channels/mrail/src/gen2/ibv_channel_manager.c:586: [] Got completion with error 12, vendor code=0x81, dest rank=73
: No such file or directory (2)
[0<-77] recv desc error, wc_opcode=11104
[0->77] wc.status=12, wc.wr_id=0xbd264e8, wc.opcode=11104, vbuf->phead->type=0 = MPIDI_CH3_PKT_EAGER_SEND
[0<-81] recv desc error, wc_opcode=10944
[0->81] wc.status=12, wc.wr_id=0x116dd3f0, wc.opcode=10944, vbuf->phead->type=0 = MPIDI_CH3_PKT_EAGER_SEND
[0<-66] recv desc error, wc_opcode=10961
[0->66] wc.status=12, wc.wr_id=0xb408cf0, wc.opcode=10961, vbuf->phead->type=0 = MPIDI_CH3_PKT_EAGER_SEND
[0<-67] recv desc error, wc_opcode=11167
[0->67] wc.status=12, wc.wr_id=0x1adfdf50, wc.opcode=11167, vbuf->phead->type=0 = MPIDI_CH3_PKT_EAGER_SEND
[fission-0244:mpi_rank_109][MPIDI_CH3I_MRAILI_Cq_poll] src/mpid/ch3/channels/mrail/src/gen2/ibv_channel_manager.c:586: [] Got completion with error 12, vendor code=0x81, dest rank=77
: No such file or directory (2)
[0<-79] recv desc error, wc_opcode=11092
[0->79] wc.status=12, wc.wr_id=0x1d0c0f18, wc.opcode=11092, vbuf->phead->type=0 = MPIDI_CH3_PKT_EAGER_SEND
[fission-0244:mpi_rank_112][MPIDI_CH3I_MRAILI_Cq_poll] src/mpid/ch3/channels/mrail/src/gen2/ibv_channel_manager.c:586: [] Got completion with error 12, vendor code=0x81, dest rank=80
: No such file or directory (2)
[fission-0244:mpi_rank_113][MPIDI_CH3I_MRAILI_Cq_poll] src/mpid/ch3/channels/mrail/src/gen2/ibv_channel_manager.c:586: [] Got completion with error 12, vendor code=0x81, dest rank=81
: No such file or directory (2)
[0<-87] recv desc error, wc_opcode=10928
[0->87] wc.status=12, wc.wr_id=0x1703d6d8, wc.opcode=10928, vbuf->phead->type=0 = MPIDI_CH3_PKT_EAGER_SEND
[fission-0244:mpi_rank_119][MPIDI_CH3I_MRAILI_Cq_poll] src/mpid/ch3/channels/mrail/src/gen2/ibv_channel_manager.c:586: [] Got completion with error 12, vendor code=0x81, dest rank=87
: No such file or directory (2)
[0<-93] recv desc error, wc_opcode=10995
[0->93] wc.status=12, wc.wr_id=0x1fa472f8, wc.opcode=10995, vbuf->phead->type=0 = MPIDI_CH3_PKT_EAGER_SEND
[fission-0244:mpi_rank_125][MPIDI_CH3I_MRAILI_Cq_poll] src/mpid/ch3/channels/mrail/src/gen2/ibv_channel_manager.c:586: [] Got completion with error 12, vendor code=0x81, dest rank=93
: No such file or directory (2)
[fission-0244:mpi_rank_126][MPIDI_CH3I_MRAILI_Cq_poll] src/mpid/ch3/channels/mrail/src/gen2/ibv_channel_manager.c:586: [] Got completion with error 12, vendor code=0x81, dest rank=94
: No such file or directory (2)
[0<-65] recv desc error, wc_opcode=11178
[0->65] wc.status=12, wc.wr_id=0x102fecf0, wc.opcode=11178, vbuf->phead->type=0 = MPIDI_CH3_PKT_EAGER_SEND
[fission-0244:mpi_rank_97][MPIDI_CH3I_MRAILI_Cq_poll] src/mpid/ch3/channels/mrail/src/gen2/ibv_channel_manager.c:586: [] Got completion with error 12, vendor code=0x81, dest rank=65
: No such file or directory (2)
[fission-0244:mpi_rank_98][MPIDI_CH3I_MRAILI_Cq_poll] src/mpid/ch3/channels/mrail/src/gen2/ibv_channel_manager.c:586: [] Got completion with error 12, vendor code=0x81, dest rank=66
: No such file or directory (2)
[fission-0244:mpi_rank_99][MPIDI_CH3I_MRAILI_Cq_poll] src/mpid/ch3/channels/mrail/src/gen2/ibv_channel_manager.c:586: [] Got completion with error 12, vendor code=0x81, dest rank=67
: No such file or directory (2)
[0<-68] recv desc error, wc_opcode=11169
[0->68] wc.status=12, wc.wr_id=0x1c422b00, wc.opcode=11169, vbuf->phead->type=0 = MPIDI_CH3_PKT_EAGER_SEND
[0<-69] recv desc error, wc_opcode=11148
[0->69] wc.status=12, wc.wr_id=0x17e0b7d8, wc.opcode=11148, vbuf->phead->type=0 = MPIDI_CH3_PKT_EAGER_SEND
[0<-76] recv desc error, wc_opcode=11107
[0->76] wc.status=12, wc.wr_id=0x13c896d8, wc.opcode=11107, vbuf->phead->type=0 = MPIDI_CH3_PKT_EAGER_SEND
[fission-0244:mpi_rank_111][MPIDI_CH3I_MRAILI_Cq_poll] src/mpid/ch3/channels/mrail/src/gen2/ibv_channel_manager.c:586: [] Got completion with error 12, vendor code=0x81, dest rank=79
: No such file or directory (2)
[0<-85] recv desc error, wc_opcode=10998
[0->85] wc.status=12, wc.wr_id=0x13c62c30, wc.opcode=10998, vbuf->phead->type=0 = MPIDI_CH3_PKT_EAGER_SEND
[fission-0244:mpi_rank_117][MPIDI_CH3I_MRAILI_Cq_poll] src/mpid/ch3/channels/mrail/src/gen2/ibv_channel_manager.c:586: [] Got completion with error 12, vendor code=0x81, dest rank=85
: No such file or directory (2)
[fission-0244:mpi_rank_100][MPIDI_CH3I_MRAILI_Cq_poll] src/mpid/ch3/channels/mrail/src/gen2/ibv_channel_manager.c:586: [] Got completion with error 12, vendor code=0x81, dest rank=68
: No such file or directory (2)
[fission-0244:mpi_rank_101][MPIDI_CH3I_MRAILI_Cq_poll] src/mpid/ch3/channels/mrail/src/gen2/ibv_channel_manager.c:586: [] Got completion with error 12, vendor code=0x81, dest rank=69
: No such file or directory (2)
[fission-0244:mpi_rank_108][MPIDI_CH3I_MRAILI_Cq_poll] src/mpid/ch3/channels/mrail/src/gen2/ibv_channel_manager.c:586: [] Got completion with error 12, vendor code=0x81, dest rank=76
: No such file or directory (2)
[0<-78] recv desc error, wc_opcode=11074
[0->78] wc.status=12, wc.wr_id=0x15abfe20, wc.opcode=11074, vbuf->phead->type=0 = MPIDI_CH3_PKT_EAGER_SEND
[fission-0244:mpi_rank_110][MPIDI_CH3I_MRAILI_Cq_poll] src/mpid/ch3/channels/mrail/src/gen2/ibv_channel_manager.c:586: [] Got completion with error 12, vendor code=0x81, dest rank=78
: No such file or directory (2)
[0<-83] recv desc error, wc_opcode=11042
[0->83] wc.status=12, wc.wr_id=0x17072108, wc.opcode=11042, vbuf->phead->type=0 = MPIDI_CH3_PKT_EAGER_SEND
[fission-0244:mpi_rank_115][MPIDI_CH3I_MRAILI_Cq_poll] src/mpid/ch3/channels/mrail/src/gen2/ibv_channel_manager.c:586: [] Got completion with error 12, vendor code=0x81, dest rank=83
: No such file or directory (2)
[0<-70] recv desc error, wc_opcode=11168
[0->70] wc.status=12, wc.wr_id=0xb30ba40, wc.opcode=11168, vbuf->phead->type=0 = MPIDI_CH3_PKT_EAGER_SEND
[fission-0244:mpi_rank_102][MPIDI_CH3I_MRAILI_Cq_poll] src/mpid/ch3/channels/mrail/src/gen2/ibv_channel_manager.c:586: [] Got completion with error 12, vendor code=0x81, dest rank=70
: No such file or directory (2)
[0<-84] recv desc error, wc_opcode=11132
[0->84] wc.status=12, wc.wr_id=0x1c921d28, wc.opcode=11132, vbuf->phead->type=0 = MPIDI_CH3_PKT_EAGER_SEND
[fission-0244:mpi_rank_116][MPIDI_CH3I_MRAILI_Cq_poll] src/mpid/ch3/channels/mrail/src/gen2/ibv_channel_manager.c:586: [] Got completion with error 12, vendor code=0x81, dest rank=84
: No such file or directory (2)
[0<-71] recv desc error, wc_opcode=11150
[0->71] wc.status=12, wc.wr_id=0x5a3ea40, wc.opcode=11150, vbuf->phead->type=0 = MPIDI_CH3_PKT_EAGER_SEND
[fission-0244:mpi_rank_103][MPIDI_CH3I_MRAILI_Cq_poll] src/mpid/ch3/channels/mrail/src/gen2/ibv_channel_manager.c:586: [] Got completion with error 12, vendor code=0x81, dest rank=71
: No such file or directory (2)
[0<-72] recv desc error, wc_opcode=11166
[0->72] wc.status=12, wc.wr_id=0x1f37e3f0, wc.opcode=11166, vbuf->phead->type=0 = MPIDI_CH3_PKT_EAGER_SEND
[fission-0244:mpi_rank_104][MPIDI_CH3I_MRAILI_Cq_poll] src/mpid/ch3/channels/mrail/src/gen2/ibv_channel_manager.c:586: [] Got completion with error 12, vendor code=0x81, dest rank=72
: No such file or directory (2)

===================================================================================
=   BAD TERMINATION OF ONE OF YOUR APPLICATION PROCESSES
=   EXIT CODE: 252
=   CLEANING UP REMAINING PROCESSES
=   YOU CAN IGNORE THE BELOW CLEANUP MESSAGES
===================================================================================
[proxy:0:0@fission-0224] HYD_pmcd_pmip_control_cmd_cb (./pm/pmiserv/pmip_cb.c:913): assert (!closed) failed
[proxy:0:0@fission-0224] HYDT_dmxu_poll_wait_for_event (./tools/demux/demux_poll.c:77): callback returned error status
[proxy:0:0@fission-0224] main (./pm/pmiserv/pmip.c:206): demux engine error waiting for event
[proxy:0:1@fission-0278] HYD_pmcd_pmip_control_cmd_cb (./pm/pmiserv/pmip_cb.c:913): assert (!closed) failed
[proxy:0:1@fission-0278] HYDT_dmxu_poll_wait_for_event (./tools/demux/demux_poll.c:77): callback returned error status
[proxy:0:1@fission-0278] main (./pm/pmiserv/pmip.c:206): demux engine error waiting for event
[proxy:0:4@fission-0107] HYD_pmcd_pmip_control_cmd_cb (./pm/pmiserv/pmip_cb.c:913): assert (!closed) failed
[proxy:0:4@fission-0107] HYDT_dmxu_poll_wait_for_event (./tools/demux/demux_poll.c:77): callback returned error status
[proxy:0:4@fission-0107] main (./pm/pmiserv/pmip.c:206): demux engine error waiting for event
[proxy:0:5@fission-0269] HYD_pmcd_pmip_control_cmd_cb (./pm/pmiserv/pmip_cb.c:913): assert (!closed) failed
[proxy:0:5@fission-0269] HYDT_dmxu_poll_wait_for_event (./tools/demux/demux_poll.c:77): callback returned error status
[proxy:0:5@fission-0269] main (./pm/pmiserv/pmip.c:206): demux engine error waiting for event
[proxy:0:7@fission-0229] HYD_pmcd_pmip_control_cmd_cb (./pm/pmiserv/pmip_cb.c:913): assert (!closed) failed
[proxy:0:7@fission-0229] HYDT_dmxu_poll_wait_for_event (./tools/demux/demux_poll.c:77): callback returned error status
[proxy:0:7@fission-0229] main (./pm/pmiserv/pmip.c:206): demux engine error waiting for event
[proxy:0:8@fission-0231] HYD_pmcd_pmip_control_cmd_cb (./pm/pmiserv/pmip_cb.c:913): assert (!closed) failed
[proxy:0:8@fission-0231] HYDT_dmxu_poll_wait_for_event (./tools/demux/demux_poll.c:77): callback returned error status
[proxy:0:8@fission-0231] main (./pm/pmiserv/pmip.c:206): demux engine error waiting for event
[proxy:0:9@fission-0305] HYD_pmcd_pmip_control_cmd_cb (./pm/pmiserv/pmip_cb.c:913): assert (!closed) failed
[proxy:0:9@fission-0305] HYDT_dmxu_poll_wait_for_event (./tools/demux/demux_poll.c:77): callback returned error status
[proxy:0:9@fission-0305] main (./pm/pmiserv/pmip.c:206): demux engine error waiting for event
[proxy:0:10@fission-0356] HYD_pmcd_pmip_control_cmd_cb (./pm/pmiserv/pmip_cb.c:913): assert (!closed) failed
[proxy:0:10@fission-0356] HYDT_dmxu_poll_wait_for_event (./tools/demux/demux_poll.c:77): callback returned error status
[proxy:0:10@fission-0356] main (./pm/pmiserv/pmip.c:206): demux engine error waiting for event
[proxy:0:11@fission-0268] HYD_pmcd_pmip_control_cmd_cb (./pm/pmiserv/pmip_cb.c:913): assert (!closed) failed
[proxy:0:11@fission-0268] HYDT_dmxu_poll_wait_for_event (./tools/demux/demux_poll.c:77): callback returned error status
[proxy:0:11@fission-0268] main (./pm/pmiserv/pmip.c:206): demux engine error waiting for event
[proxy:0:12@fission-0071] HYD_pmcd_pmip_control_cmd_cb (./pm/pmiserv/pmip_cb.c:913): assert (!closed) failed
[proxy:0:12@fission-0071] HYDT_dmxu_poll_wait_for_event (./tools/demux/demux_poll.c:77): callback returned error status
[proxy:0:12@fission-0071] main (./pm/pmiserv/pmip.c:206): demux engine error waiting for event
[proxy:0:13@fission-0066] HYD_pmcd_pmip_control_cmd_cb (./pm/pmiserv/pmip_cb.c:913): assert (!closed) failed
[proxy:0:13@fission-0066] HYDT_dmxu_poll_wait_for_event (./tools/demux/demux_poll.c:77): callback returned error status
[proxy:0:13@fission-0066] main (./pm/pmiserv/pmip.c:206): demux engine error waiting for event
[proxy:0:14@fission-0165] HYD_pmcd_pmip_control_cmd_cb (./pm/pmiserv/pmip_cb.c:913): assert (!closed) failed
[proxy:0:14@fission-0165] HYDT_dmxu_poll_wait_for_event (./tools/demux/demux_poll.c:77): callback returned error status
[proxy:0:14@fission-0165] main (./pm/pmiserv/pmip.c:206): demux engine error waiting for event
[proxy:0:15@fission-0160] HYD_pmcd_pmip_control_cmd_cb (./pm/pmiserv/pmip_cb.c:913): assert (!closed) failed
[proxy:0:15@fission-0160] HYDT_dmxu_poll_wait_for_event (./tools/demux/demux_poll.c:77): callback returned error status
[proxy:0:15@fission-0160] main (./pm/pmiserv/pmip.c:206): demux engine error waiting for event
[mpiexec@fission-0224] HYDT_bscu_wait_for_completion (./tools/bootstrap/utils/bscu_wait.c:76): one of the processes terminated badly; aborting
[mpiexec@fission-0224] HYDT_bsci_wait_for_completion (./tools/bootstrap/src/bsci_wait.c:23): launcher returned error waiting for completion
[mpiexec@fission-0224] HYD_pmci_wait_for_completion (./pm/pmiserv/pmiserv_pmci.c:217): launcher returned error waiting for completion
[mpiexec@fission-0224] main (./ui/mpich/mpiexec.c:331): process manager error waiting for completion
