fission-0329
fission-0329
fission-0329
fission-0329
fission-0329
fission-0329
fission-0329
fission-0329
fission-0329
fission-0329
fission-0329
fission-0329
fission-0329
fission-0329
fission-0329
fission-0329
fission-0329
fission-0329
fission-0329
fission-0329
fission-0329
fission-0329
fission-0329
fission-0329
fission-0329
fission-0329
fission-0329
fission-0329
fission-0329
fission-0329
fission-0329
fission-0329
fission-0326
fission-0326
fission-0326
fission-0326
fission-0326
fission-0326
fission-0326
fission-0326
fission-0326
fission-0326
fission-0326
fission-0326
fission-0326
fission-0326
fission-0326
fission-0326
fission-0326
fission-0326
fission-0326
fission-0326
fission-0326
fission-0326
fission-0326
fission-0326
fission-0326
fission-0326
fission-0326
fission-0326
fission-0326
fission-0326
fission-0326
fission-0326
fission-0196
fission-0196
fission-0196
fission-0196
fission-0196
fission-0196
fission-0196
fission-0196
fission-0196
fission-0196
fission-0196
fission-0196
fission-0196
fission-0196
fission-0196
fission-0196
fission-0196
fission-0196
fission-0196
fission-0196
fission-0196
fission-0196
fission-0196
fission-0196
fission-0196
fission-0196
fission-0196
fission-0196
fission-0196
fission-0196
fission-0196
fission-0196
fission-0249
fission-0249
fission-0249
fission-0249
fission-0249
fission-0249
fission-0249
fission-0249
fission-0249
fission-0249
fission-0249
fission-0249
fission-0249
fission-0249
fission-0249
fission-0249
fission-0249
fission-0249
fission-0249
fission-0249
fission-0249
fission-0249
fission-0249
fission-0249
fission-0249
fission-0249
fission-0249
fission-0249
fission-0249
fission-0249
fission-0249
fission-0249
fission-0250
fission-0250
fission-0250
fission-0250
fission-0250
fission-0250
fission-0250
fission-0250
fission-0250
fission-0250
fission-0250
fission-0250
fission-0250
fission-0250
fission-0250
fission-0250
fission-0250
fission-0250
fission-0250
fission-0250
fission-0250
fission-0250
fission-0250
fission-0250
fission-0250
fission-0250
fission-0250
fission-0250
fission-0250
fission-0250
fission-0250
fission-0250
fission-0257
fission-0257
fission-0257
fission-0257
fission-0257
fission-0257
fission-0257
fission-0257
fission-0257
fission-0257
fission-0257
fission-0257
fission-0257
fission-0257
fission-0257
fission-0257
fission-0257
fission-0257
fission-0257
fission-0257
fission-0257
fission-0257
fission-0257
fission-0257
fission-0257
fission-0257
fission-0257
fission-0257
fission-0257
fission-0257
fission-0257
fission-0257
fission-0258
fission-0258
fission-0258
fission-0258
fission-0258
fission-0258
fission-0258
fission-0258
fission-0258
fission-0258
fission-0258
fission-0258
fission-0258
fission-0258
fission-0258
fission-0258
fission-0258
fission-0258
fission-0258
fission-0258
fission-0258
fission-0258
fission-0258
fission-0258
fission-0258
fission-0258
fission-0258
fission-0258
fission-0258
fission-0258
fission-0258
fission-0258
fission-0263
fission-0263
fission-0263
fission-0263
fission-0263
fission-0263
fission-0263
fission-0263
fission-0263
fission-0263
fission-0263
fission-0263
fission-0263
fission-0263
fission-0263
fission-0263
fission-0263
fission-0263
fission-0263
fission-0263
fission-0263
fission-0263
fission-0263
fission-0263
fission-0263
fission-0263
fission-0263
fission-0263
fission-0263
fission-0263
fission-0263
fission-0263
fission-0299
fission-0299
fission-0299
fission-0299
fission-0299
fission-0299
fission-0299
fission-0299
fission-0299
fission-0299
fission-0299
fission-0299
fission-0299
fission-0299
fission-0299
fission-0299
fission-0299
fission-0299
fission-0299
fission-0299
fission-0299
fission-0299
fission-0299
fission-0299
fission-0299
fission-0299
fission-0299
fission-0299
fission-0299
fission-0299
fission-0299
fission-0299
fission-0261
fission-0261
fission-0261
fission-0261
fission-0261
fission-0261
fission-0261
fission-0261
fission-0261
fission-0261
fission-0261
fission-0261
fission-0261
fission-0261
fission-0261
fission-0261
fission-0261
fission-0261
fission-0261
fission-0261
fission-0261
fission-0261
fission-0261
fission-0261
fission-0261
fission-0261
fission-0261
fission-0261
fission-0261
fission-0261
fission-0261
fission-0261
fission-0318
fission-0318
fission-0318
fission-0318
fission-0318
fission-0318
fission-0318
fission-0318
fission-0318
fission-0318
fission-0318
fission-0318
fission-0318
fission-0318
fission-0318
fission-0318
fission-0318
fission-0318
fission-0318
fission-0318
fission-0318
fission-0318
fission-0318
fission-0318
fission-0318
fission-0318
fission-0318
fission-0318
fission-0318
fission-0318
fission-0318
fission-0318
fission-0320
fission-0320
fission-0320
fission-0320
fission-0320
fission-0320
fission-0320
fission-0320
fission-0320
fission-0320
fission-0320
fission-0320
fission-0320
fission-0320
fission-0320
fission-0320
fission-0320
fission-0320
fission-0320
fission-0320
fission-0320
fission-0320
fission-0320
fission-0320
fission-0320
fission-0320
fission-0320
fission-0320
fission-0320
fission-0320
fission-0320
fission-0320
fission-0074
fission-0074
fission-0074
fission-0074
fission-0074
fission-0074
fission-0074
fission-0074
fission-0074
fission-0074
fission-0074
fission-0074
fission-0074
fission-0074
fission-0074
fission-0074
fission-0074
fission-0074
fission-0074
fission-0074
fission-0074
fission-0074
fission-0074
fission-0074
fission-0074
fission-0074
fission-0074
fission-0074
fission-0074
fission-0074
fission-0074
fission-0074
fission-0238
fission-0238
fission-0238
fission-0238
fission-0238
fission-0238
fission-0238
fission-0238
fission-0238
fission-0238
fission-0238
fission-0238
fission-0238
fission-0238
fission-0238
fission-0238
fission-0238
fission-0238
fission-0238
fission-0238
fission-0238
fission-0238
fission-0238
fission-0238
fission-0238
fission-0238
fission-0238
fission-0238
fission-0238
fission-0238
fission-0238
fission-0238
fission-0217
fission-0217
fission-0217
fission-0217
fission-0217
fission-0217
fission-0217
fission-0217
fission-0217
fission-0217
fission-0217
fission-0217
fission-0217
fission-0217
fission-0217
fission-0217
fission-0217
fission-0217
fission-0217
fission-0217
fission-0217
fission-0217
fission-0217
fission-0217
fission-0217
fission-0217
fission-0217
fission-0217
fission-0217
fission-0217
fission-0217
fission-0217
fission-0290
fission-0290
fission-0290
fission-0290
fission-0290
fission-0290
fission-0290
fission-0290
fission-0290
fission-0290
fission-0290
fission-0290
fission-0290
fission-0290
fission-0290
fission-0290
fission-0290
fission-0290
fission-0290
fission-0290
fission-0290
fission-0290
fission-0290
fission-0290
fission-0290
fission-0290
fission-0290
fission-0290
fission-0290
fission-0290
fission-0290
fission-0290

The following PBS extra args (PBS_EXTRA_ARGS) will be used: -P ldrd
The following lammps extra args (LAMMPS_EXTRA_ARGS) will be used:
LAMMPS (16 Feb 2016)
#log		log.c
units           metal
dimension       3
boundary        p p p
atom_style      atomic
shell         mkdir  cfg
shell         mkdir  dump

# ----------------------- ATOM DEFINITION & Force Field -------------
# ----------------------- ATOM DEFINITION ----------------------------
lattice         fcc 4.024845358 #origin 0.0 0.0 0.0 orient x 1 -1 0 orient y 1 1 -2 orient z 1 1 1
Lattice spacing in x,y,z = 4.02485 4.02485 4.02485
variable        Lx equal 52
variable        Ly equal 2
variable        Lz equal 208
variable        boxLZ equal 218
region          SYSTEM block -52 52 -2 2 -208 0 units lattice
region          BOX block -52 52 -2 2 -218 5 units lattice
create_box      1 BOX
Created orthogonal box = (-209.292 -8.04969 -877.416) to (209.292 8.04969 20.1242)
create_atoms    1 region SYSTEM
Created 346944 atoms

delete_atoms     porosity BOX 0.001 15246    ##random seed <RAND1>
Deleted 359 atoms, new total = 346585

#---------------------------------------------------------------------------------
pair_style      eam/alloy
pair_coeff  	  * * Al_wkg_MSMSE_2009.set Al

#----------------------------------------------------------------------------------
velocity       all create 300.0 4998 mom yes rot yes dist gaussian         ##random seed <RAND2>

fix             1 all npt temp 300 300 0.1 iso 0.0 0.0 2
run      10000
  1 neighbor list requests
  update every 1 steps, delay 10 steps, check yes
Setting up Verlet run ...
  Unit style  : metal
  Current step: 0
  Time step   : 0.001
Step Temp E_pair E_mol TotEng Press Volume
0          300   -916010.81            0   -902570.96    1881.8029    6048473.6
Loop time of 60.9557 on 512 procs for 10000 steps with 346585 atoms

unfix 1

fix            2 all nvt temp 300.0 300.0 0.1

run      10000
Setting up Verlet run ...
  Unit style  : metal
  Current step: 10000
  Time step   : 0.001
Step Temp E_pair E_mol TotEng Press
10000     299.8958   -901981.93            0   -888546.75    30.056532
Loop time of 59.0787 on 512 procs for 10000 steps with 346585 atoms

reset_timestep 0
unfix    2
#---------------------- DEFINE Laser GERION and GROUP ----------------
region       R1  block -75  75  INF  INF  INF  5  units box
group        G1 region R1
123557 atoms in group G1
group        G2 subtract all G1
223028 atoms in group G2

#define     temperature/pressure calculation  group
variable    x1atom atom "x>=0  &&  x<4 &&  z>-40 && z<1"     ##NEW!!!!!!!!!!!!
variable    x2atom atom "x>=-209.292  &&  x<-205.292 &&  z>-40 && z<1"
variable    x3atom atom "x>=0  &&  x<4 &&  z>-20 && z<1"
variable    x4atom atom "x>=-209.292  &&  x<-205.292 &&  z>-20 && z<1"
variable    x5atom atom "x>=196  &&  x<200 &&  z>-40 && z<1"

group       x1atom variable x1atom
140 atoms in group x1atom
group       x2atom variable x2atom
160 atoms in group x2atom
group       x3atom variable x3atom
69 atoms in group x3atom
group       x4atom variable x4atom
80 atoms in group x4atom
group       x5atom variable x5atom
160 atoms in group x5atom

compute      COM1x x1atom com
compute      COM2x x2atom com
compute      COM3x x3atom com
compute      COM4x x4atom com
compute      COM5x x5atom com

compute      COMall all com

#Temperature profile
#variable      Tprofile atom 300*(1+(step/5000)*2.5*exp(z/40))
variable      Tprofile atom 300*(1+(step/5000)*2.5*exp(z/75))

# ------------------------- SETTINGS ---------------------------------
thermo          100
thermo_style    custom step lx pxx pyy pzz temp c_COM1x[1] c_COM1x[2] c_COM1x[3] c_COM2x[1] c_COM2x[2] c_COM2x[3] c_COM3x[1] c_COM3x[2] c_COM3x[3] c_COM4x[1] c_COM4x[2] c_COM4x[3]  c_COM5x[1] c_COM5x[2] c_COM5x[3] c_COMall[1] c_COMall[2] c_COMall[3]

timestep       0.002

compute dispall all displace/atom
# ---------------- Run Laser Material Interaction --------------------
#dump          1 all custom 1000 dump/z1dump.atom id type x y z c_dispall[1]  c_dispall[2]  c_dispall[3] c_dispall[4]
#dump          2 all cfg 100 cfg/*.cfg mass type xs ys zs
#dump_modify   2 element Al

#relax for 2 PS
#fix           1 all nvt temp 300.0 300.0 0.1
#run  1000
#unfix         1

fix           1  all nve
fix           3temp  G1  langevin  v_Tprofile  0  0.1  378411   #TEST ALL
run           5000
Setting up Verlet run ...
  Unit style  : metal
  Current step: 0
  Time step   : 0.002
Step Lx Pxx Pyy Pzz Temp COM1x[1] COM1x[2] COM1x[3] COM2x[1] COM2x[2] COM2x[3] COM3x[1] COM3x[2] COM3x[3] COM4x[1] COM4x[2] COM4x[3] COM5x[1] COM5x[2] COM5x[3] COMall[1 COMall[2 COMall[3
0    421.50333    190.38364    166.90902   -153.03921    299.76141    2.2270126  -0.73858524   -19.946995   -207.73874  -0.96177334   -19.868769    2.2904836  -0.50417191   -9.2861256   -207.72736  -0.95032274   -9.7110258    197.61326  -0.96942743   -19.864469   -1.0133958    -1.013197   -418.51823
Averages over the last 26 of 51 rows, steps 2500 to 5000:
Lx Pxx Pyy Pzz Temp COM1x[1] COM1x[2] COM1x[3] COM2x[1] COM2x[2] COM2x[3] COM3x[1] COM3x[2] COM3x[3] COM4x[1] COM4x[2] COM4x[3] COM5x[1] COM5x[2] COM5x[3] COMall[1 COMall[2 COMall[3
421.503 1258.54 1216.24 718.249 322.052 2.14568 -0.746653 -19.6396 -207.785 -1.03877 -19.7817 2.20311 -0.428982 -8.81216 -207.795 -1.03143 -9.61214 197.585 -1.03084 -19.7654 -1.0018 -1.0287 -418.514
Loop time of 30.4633 on 512 procs for 5000 steps with 346585 atoms

variable  com1_x equal "c_COM1x[1]"
variable  com1_y equal "c_COM1x[2]"
variable  com1_z equal "c_COM1x[3]"
variable  com2_x equal "c_COM2x[1]"
variable  com2_y equal "c_COM2x[2]"
variable  com2_z equal "c_COM2x[3]"
variable  com3_x equal "c_COM3x[1]"
variable  com3_y equal "c_COM3x[2]"
variable  com3_z equal "c_COM3x[3]"
variable  com4_x equal "c_COM4x[1]"
variable  com4_y equal "c_COM4x[2]"
variable  com4_z equal "c_COM4x[3]"
variable  com5_x equal "c_COM5x[1]"
variable  com5_y equal "c_COM5x[2]"
variable  com5_z equal "c_COM5x[3]"
variable  comall_x equal "c_COMall[1]"
variable  comall_y equal "c_COMall[2]"
variable  comall_z equal "c_COMall[3]"

#-------------------------- Wave Propagation -------------------------
unfix        3temp
run          1000000
Setting up Verlet run ...
  Unit style  : metal
  Current step: 5000
  Time step   : 0.002
Step Lx Pxx Pyy Pzz Temp COM1x[1] COM1x[2] COM1x[3] COM2x[1] COM2x[2] COM2x[3] COM3x[1] COM3x[2] COM3x[3] COM4x[1] COM4x[2] COM4x[3] COM5x[1] COM5x[2] COM5x[3] COMall[1 COMall[2 COMall[3
5000    421.50333    1555.9987    1465.3687    901.49611    330.19135    2.2051267  -0.62509763   -19.358196   -207.76251  -0.93753183   -19.647142     2.276234  -0.29683043   -8.3878402   -207.82183  -0.91235287   -9.4242825    197.66178  -0.98287881   -19.610578   -1.0125448    -1.022298    -418.5226
Averages over the last 5001 of 10001 rows, steps 505000 to 1005000:
Lx Pxx Pyy Pzz Temp COM1x[1] COM1x[2] COM1x[3] COM2x[1] COM2x[2] COM2x[3] COM3x[1] COM3x[2] COM3x[3] COM4x[1] COM4x[2] COM4x[3] COM5x[1] COM5x[2] COM5x[3] COMall[1 COMall[2 COMall[3
421.503 1089.09 1067.1 -6.94862 330.671 -12.8335 -3.05412 -38.5268 -222.811 -3.24193 -38.3967 -12.7694 -2.75758 -27.8656 -222.818 -3.24226 -28.2336 182.48 -3.24173 -38.3917 -16.1197 -3.24177 -437.77
Loop time of 5745.62 on 512 procs for 1000000 steps with 346585 atoms
