fission-0363
fission-0363
fission-0363
fission-0363
fission-0363
fission-0363
fission-0363
fission-0363
fission-0363
fission-0363
fission-0363
fission-0363
fission-0363
fission-0363
fission-0363
fission-0363
fission-0363
fission-0363
fission-0363
fission-0363
fission-0363
fission-0363
fission-0363
fission-0363
fission-0363
fission-0363
fission-0363
fission-0363
fission-0363
fission-0363
fission-0363
fission-0363
fission-0342
fission-0342
fission-0342
fission-0342
fission-0342
fission-0342
fission-0342
fission-0342
fission-0342
fission-0342
fission-0342
fission-0342
fission-0342
fission-0342
fission-0342
fission-0342
fission-0342
fission-0342
fission-0342
fission-0342
fission-0342
fission-0342
fission-0342
fission-0342
fission-0342
fission-0342
fission-0342
fission-0342
fission-0342
fission-0342
fission-0342
fission-0342
fission-0343
fission-0343
fission-0343
fission-0343
fission-0343
fission-0343
fission-0343
fission-0343
fission-0343
fission-0343
fission-0343
fission-0343
fission-0343
fission-0343
fission-0343
fission-0343
fission-0343
fission-0343
fission-0343
fission-0343
fission-0343
fission-0343
fission-0343
fission-0343
fission-0343
fission-0343
fission-0343
fission-0343
fission-0343
fission-0343
fission-0343
fission-0343
fission-0344
fission-0344
fission-0344
fission-0344
fission-0344
fission-0344
fission-0344
fission-0344
fission-0344
fission-0344
fission-0344
fission-0344
fission-0344
fission-0344
fission-0344
fission-0344
fission-0344
fission-0344
fission-0344
fission-0344
fission-0344
fission-0344
fission-0344
fission-0344
fission-0344
fission-0344
fission-0344
fission-0344
fission-0344
fission-0344
fission-0344
fission-0344
fission-0306
fission-0306
fission-0306
fission-0306
fission-0306
fission-0306
fission-0306
fission-0306
fission-0306
fission-0306
fission-0306
fission-0306
fission-0306
fission-0306
fission-0306
fission-0306
fission-0306
fission-0306
fission-0306
fission-0306
fission-0306
fission-0306
fission-0306
fission-0306
fission-0306
fission-0306
fission-0306
fission-0306
fission-0306
fission-0306
fission-0306
fission-0306
fission-0348
fission-0348
fission-0348
fission-0348
fission-0348
fission-0348
fission-0348
fission-0348
fission-0348
fission-0348
fission-0348
fission-0348
fission-0348
fission-0348
fission-0348
fission-0348
fission-0348
fission-0348
fission-0348
fission-0348
fission-0348
fission-0348
fission-0348
fission-0348
fission-0348
fission-0348
fission-0348
fission-0348
fission-0348
fission-0348
fission-0348
fission-0348
fission-0351
fission-0351
fission-0351
fission-0351
fission-0351
fission-0351
fission-0351
fission-0351
fission-0351
fission-0351
fission-0351
fission-0351
fission-0351
fission-0351
fission-0351
fission-0351
fission-0351
fission-0351
fission-0351
fission-0351
fission-0351
fission-0351
fission-0351
fission-0351
fission-0351
fission-0351
fission-0351
fission-0351
fission-0351
fission-0351
fission-0351
fission-0351
fission-0068
fission-0068
fission-0068
fission-0068
fission-0068
fission-0068
fission-0068
fission-0068
fission-0068
fission-0068
fission-0068
fission-0068
fission-0068
fission-0068
fission-0068
fission-0068
fission-0068
fission-0068
fission-0068
fission-0068
fission-0068
fission-0068
fission-0068
fission-0068
fission-0068
fission-0068
fission-0068
fission-0068
fission-0068
fission-0068
fission-0068
fission-0068
fission-0094
fission-0094
fission-0094
fission-0094
fission-0094
fission-0094
fission-0094
fission-0094
fission-0094
fission-0094
fission-0094
fission-0094
fission-0094
fission-0094
fission-0094
fission-0094
fission-0094
fission-0094
fission-0094
fission-0094
fission-0094
fission-0094
fission-0094
fission-0094
fission-0094
fission-0094
fission-0094
fission-0094
fission-0094
fission-0094
fission-0094
fission-0094
fission-0245
fission-0245
fission-0245
fission-0245
fission-0245
fission-0245
fission-0245
fission-0245
fission-0245
fission-0245
fission-0245
fission-0245
fission-0245
fission-0245
fission-0245
fission-0245
fission-0245
fission-0245
fission-0245
fission-0245
fission-0245
fission-0245
fission-0245
fission-0245
fission-0245
fission-0245
fission-0245
fission-0245
fission-0245
fission-0245
fission-0245
fission-0245
fission-0360
fission-0360
fission-0360
fission-0360
fission-0360
fission-0360
fission-0360
fission-0360
fission-0360
fission-0360
fission-0360
fission-0360
fission-0360
fission-0360
fission-0360
fission-0360
fission-0360
fission-0360
fission-0360
fission-0360
fission-0360
fission-0360
fission-0360
fission-0360
fission-0360
fission-0360
fission-0360
fission-0360
fission-0360
fission-0360
fission-0360
fission-0360
fission-0192
fission-0192
fission-0192
fission-0192
fission-0192
fission-0192
fission-0192
fission-0192
fission-0192
fission-0192
fission-0192
fission-0192
fission-0192
fission-0192
fission-0192
fission-0192
fission-0192
fission-0192
fission-0192
fission-0192
fission-0192
fission-0192
fission-0192
fission-0192
fission-0192
fission-0192
fission-0192
fission-0192
fission-0192
fission-0192
fission-0192
fission-0192
fission-0105
fission-0105
fission-0105
fission-0105
fission-0105
fission-0105
fission-0105
fission-0105
fission-0105
fission-0105
fission-0105
fission-0105
fission-0105
fission-0105
fission-0105
fission-0105
fission-0105
fission-0105
fission-0105
fission-0105
fission-0105
fission-0105
fission-0105
fission-0105
fission-0105
fission-0105
fission-0105
fission-0105
fission-0105
fission-0105
fission-0105
fission-0105
fission-0214
fission-0214
fission-0214
fission-0214
fission-0214
fission-0214
fission-0214
fission-0214
fission-0214
fission-0214
fission-0214
fission-0214
fission-0214
fission-0214
fission-0214
fission-0214
fission-0214
fission-0214
fission-0214
fission-0214
fission-0214
fission-0214
fission-0214
fission-0214
fission-0214
fission-0214
fission-0214
fission-0214
fission-0214
fission-0214
fission-0214
fission-0214
fission-0097
fission-0097
fission-0097
fission-0097
fission-0097
fission-0097
fission-0097
fission-0097
fission-0097
fission-0097
fission-0097
fission-0097
fission-0097
fission-0097
fission-0097
fission-0097
fission-0097
fission-0097
fission-0097
fission-0097
fission-0097
fission-0097
fission-0097
fission-0097
fission-0097
fission-0097
fission-0097
fission-0097
fission-0097
fission-0097
fission-0097
fission-0097
fission-0168
fission-0168
fission-0168
fission-0168
fission-0168
fission-0168
fission-0168
fission-0168
fission-0168
fission-0168
fission-0168
fission-0168
fission-0168
fission-0168
fission-0168
fission-0168
fission-0168
fission-0168
fission-0168
fission-0168
fission-0168
fission-0168
fission-0168
fission-0168
fission-0168
fission-0168
fission-0168
fission-0168
fission-0168
fission-0168
fission-0168
fission-0168

The following PBS extra args (PBS_EXTRA_ARGS) will be used: -P ldrd
The following lammps extra args (LAMMPS_EXTRA_ARGS) will be used:
LAMMPS (16 Feb 2016)
#log		log.c
units           metal
dimension       3
boundary        p p p
atom_style      atomic
shell         mkdir  cfg
shell         mkdir  dump

# ----------------------- ATOM DEFINITION & Force Field -------------
# ----------------------- ATOM DEFINITION ----------------------------
lattice         fcc 4.024845358 #origin 0.0 0.0 0.0 orient x 1 -1 0 orient y 1 1 -2 orient z 1 1 1
Lattice spacing in x,y,z = 4.02485 4.02485 4.02485
variable        Lx equal 52
variable        Ly equal 2
variable        Lz equal 208
variable        boxLZ equal 218
region          SYSTEM block -52 52 -2 2 -208 0 units lattice
region          BOX block -52 52 -2 2 -218 5 units lattice
create_box      1 BOX
Created orthogonal box = (-209.292 -8.04969 -877.416) to (209.292 8.04969 20.1242)
create_atoms    1 region SYSTEM
Created 346944 atoms

delete_atoms     porosity BOX 0.001 5927    ##random seed <RAND1>
Deleted 334 atoms, new total = 346610

#---------------------------------------------------------------------------------
pair_style      eam/alloy
pair_coeff  	  * * Al_wkg_MSMSE_2009.set Al

#----------------------------------------------------------------------------------
velocity       all create 300.0 23100 mom yes rot yes dist gaussian         ##random seed <RAND2>

fix             1 all npt temp 300 300 0.1 iso 0.0 0.0 2
run      10000
  1 neighbor list requests
  update every 1 steps, delay 10 steps, check yes
Setting up Verlet run ...
  Unit style  : metal
  Current step: 0
  Time step   : 0.001
Step Temp E_pair E_mol TotEng Press Volume
0          300   -916095.98            0   -902655.16    1901.5845    6048473.6
Loop time of 67.5446 on 512 procs for 10000 steps with 346610 atoms

unfix 1

fix            2 all nvt temp 300.0 300.0 0.1

run      10000
Setting up Verlet run ...
  Unit style  : metal
  Current step: 10000
  Time step   : 0.001
Step Temp E_pair E_mol TotEng Press
10000    299.40753    -902038.9            0   -888624.62    15.619232
Loop time of 65.503 on 512 procs for 10000 steps with 346610 atoms

reset_timestep 0
unfix    2
#---------------------- DEFINE Laser GERION and GROUP ----------------
region       R1  block -75  75  INF  INF  INF  5  units box
group        G1 region R1
123269 atoms in group G1
group        G2 subtract all G1
223341 atoms in group G2

#define     temperature/pressure calculation  group
variable    x1atom atom "x>=0  &&  x<4 &&  z>-40 && z<1"     ##NEW!!!!!!!!!!!!
variable    x2atom atom "x>=-209.292  &&  x<-205.292 &&  z>-40 && z<1"
variable    x3atom atom "x>=0  &&  x<4 &&  z>-20 && z<1"
variable    x4atom atom "x>=-209.292  &&  x<-205.292 &&  z>-20 && z<1"
variable    x5atom atom "x>=196  &&  x<200 &&  z>-40 && z<1"

group       x1atom variable x1atom
143 atoms in group x1atom
group       x2atom variable x2atom
160 atoms in group x2atom
group       x3atom variable x3atom
74 atoms in group x3atom
group       x4atom variable x4atom
80 atoms in group x4atom
group       x5atom variable x5atom
160 atoms in group x5atom

compute      COM1x x1atom com
compute      COM2x x2atom com
compute      COM3x x3atom com
compute      COM4x x4atom com
compute      COM5x x5atom com

compute      COMall all com

#Temperature profile
#variable      Tprofile atom 300*(1+(step/5000)*2.5*exp(z/40))
variable      Tprofile atom 300*(1+(step/5000)*2.5*exp(z/75))

# ------------------------- SETTINGS ---------------------------------
thermo          100
thermo_style    custom step lx pxx pyy pzz temp c_COM1x[1] c_COM1x[2] c_COM1x[3] c_COM2x[1] c_COM2x[2] c_COM2x[3] c_COM3x[1] c_COM3x[2] c_COM3x[3] c_COM4x[1] c_COM4x[2] c_COM4x[3]  c_COM5x[1] c_COM5x[2] c_COM5x[3] c_COMall[1] c_COMall[2] c_COMall[3]

timestep       0.002

compute dispall all displace/atom
# ---------------- Run Laser Material Interaction --------------------
#dump          1 all custom 1000 dump/z1dump.atom id type x y z c_dispall[1]  c_dispall[2]  c_dispall[3] c_dispall[4]
#dump          2 all cfg 100 cfg/*.cfg mass type xs ys zs
#dump_modify   2 element Al

#relax for 2 PS
#fix           1 all nvt temp 300.0 300.0 0.1
#run  1000
#unfix         1

fix           1  all nve
fix           3temp  G1  langevin  v_Tprofile  0  0.1  378411   #TEST ALL
run           5000
Setting up Verlet run ...
  Unit style  : metal
  Current step: 0
  Time step   : 0.002
Step Lx Pxx Pyy Pzz Temp COM1x[1] COM1x[2] COM1x[3] COM2x[1] COM2x[2] COM2x[3] COM3x[1] COM3x[2] COM3x[3] COM4x[1] COM4x[2] COM4x[3] COM5x[1] COM5x[2] COM5x[3] COMall[1 COMall[2 COMall[3
0     421.6012   -67.845864   -131.73403   -343.62715    299.96546    2.4158362   -1.0971637   -19.797852   -207.75324  -0.95462629    -19.73672    2.5112471  -0.97964329    -10.46126   -207.80155  -0.88502565   -9.6051219    197.56891  -0.98996874   -19.787954   -1.0180959   -1.0136282   -418.50913
Averages over the last 26 of 51 rows, steps 2500 to 5000:
Lx Pxx Pyy Pzz Temp COM1x[1] COM1x[2] COM1x[3] COM2x[1] COM2x[2] COM2x[3] COM3x[1] COM3x[2] COM3x[3] COM4x[1] COM4x[2] COM4x[3] COM5x[1] COM5x[2] COM5x[3] COMall[1 COMall[2 COMall[3
421.601 980.413 923.361 588.185 322.075 2.40839 -1.11901 -19.4073 -207.825 -1.09059 -19.8042 2.48483 -1.00243 -9.89231 -207.82 -1.0842 -9.63767 197.629 -1.07828 -19.8009 -1.0102 -1.03621 -418.52
Loop time of 32.5773 on 512 procs for 5000 steps with 346610 atoms

variable  com1_x equal "c_COM1x[1]"
variable  com1_y equal "c_COM1x[2]"
variable  com1_z equal "c_COM1x[3]"
variable  com2_x equal "c_COM2x[1]"
variable  com2_y equal "c_COM2x[2]"
variable  com2_z equal "c_COM2x[3]"
variable  com3_x equal "c_COM3x[1]"
variable  com3_y equal "c_COM3x[2]"
variable  com3_z equal "c_COM3x[3]"
variable  com4_x equal "c_COM4x[1]"
variable  com4_y equal "c_COM4x[2]"
variable  com4_z equal "c_COM4x[3]"
variable  com5_x equal "c_COM5x[1]"
variable  com5_y equal "c_COM5x[2]"
variable  com5_z equal "c_COM5x[3]"
variable  comall_x equal "c_COMall[1]"
variable  comall_y equal "c_COMall[2]"
variable  comall_z equal "c_COMall[3]"

#-------------------------- Wave Propagation -------------------------
unfix        3temp
run          1000000
Setting up Verlet run ...
  Unit style  : metal
  Current step: 5000
  Time step   : 0.002
Step Lx Pxx Pyy Pzz Temp COM1x[1] COM1x[2] COM1x[3] COM2x[1] COM2x[2] COM2x[3] COM3x[1] COM3x[2] COM3x[3] COM4x[1] COM4x[2] COM4x[3] COM5x[1] COM5x[2] COM5x[3] COMall[1 COMall[2 COMall[3
5000     421.6012    1320.7383    1237.3306    762.63017    330.81424    2.4366541    -1.065176   -19.340771   -207.79616  -0.95265342   -19.766098    2.5474632  -0.93182176   -9.8456787   -207.81852  -0.92305996    -9.566132    197.65029   -1.1189083   -19.737359   -1.0133856   -1.0292671   -418.52747
Averages over the last 5001 of 10001 rows, steps 505000 to 1005000:
Lx Pxx Pyy Pzz Temp COM1x[1] COM1x[2] COM1x[3] COM2x[1] COM2x[2] COM2x[3] COM3x[1] COM3x[2] COM3x[3] COM4x[1] COM4x[2] COM4x[3] COM5x[1] COM5x[2] COM5x[3] COMall[1 COMall[2 COMall[3
421.601 884.407 862.318 -7.87896 330.974 -13.2565 16.3801 -37.3734 -223.577 16.4715 -37.3806 -13.1226 16.4721 -28.0413 -223.577 16.4715 -27.2187 181.806 16.4718 -37.3812 -16.8301 16.4726 -436.676
Loop time of 6348.19 on 512 procs for 1000000 steps with 346610 atoms
