fission-0355
fission-0355
fission-0355
fission-0355
fission-0355
fission-0355
fission-0355
fission-0355
fission-0355
fission-0355
fission-0355
fission-0355
fission-0355
fission-0355
fission-0355
fission-0355
fission-0355
fission-0355
fission-0355
fission-0355
fission-0355
fission-0355
fission-0355
fission-0355
fission-0355
fission-0355
fission-0355
fission-0355
fission-0355
fission-0355
fission-0355
fission-0355
fission-0358
fission-0358
fission-0358
fission-0358
fission-0358
fission-0358
fission-0358
fission-0358
fission-0358
fission-0358
fission-0358
fission-0358
fission-0358
fission-0358
fission-0358
fission-0358
fission-0358
fission-0358
fission-0358
fission-0358
fission-0358
fission-0358
fission-0358
fission-0358
fission-0358
fission-0358
fission-0358
fission-0358
fission-0358
fission-0358
fission-0358
fission-0358
fission-0341
fission-0341
fission-0341
fission-0341
fission-0341
fission-0341
fission-0341
fission-0341
fission-0341
fission-0341
fission-0341
fission-0341
fission-0341
fission-0341
fission-0341
fission-0341
fission-0341
fission-0341
fission-0341
fission-0341
fission-0341
fission-0341
fission-0341
fission-0341
fission-0341
fission-0341
fission-0341
fission-0341
fission-0341
fission-0341
fission-0341
fission-0341
fission-0357
fission-0357
fission-0357
fission-0357
fission-0357
fission-0357
fission-0357
fission-0357
fission-0357
fission-0357
fission-0357
fission-0357
fission-0357
fission-0357
fission-0357
fission-0357
fission-0357
fission-0357
fission-0357
fission-0357
fission-0357
fission-0357
fission-0357
fission-0357
fission-0357
fission-0357
fission-0357
fission-0357
fission-0357
fission-0357
fission-0357
fission-0357
fission-0361
fission-0361
fission-0361
fission-0361
fission-0361
fission-0361
fission-0361
fission-0361
fission-0361
fission-0361
fission-0361
fission-0361
fission-0361
fission-0361
fission-0361
fission-0361
fission-0361
fission-0361
fission-0361
fission-0361
fission-0361
fission-0361
fission-0361
fission-0361
fission-0361
fission-0361
fission-0361
fission-0361
fission-0361
fission-0361
fission-0361
fission-0361
fission-0345
fission-0345
fission-0345
fission-0345
fission-0345
fission-0345
fission-0345
fission-0345
fission-0345
fission-0345
fission-0345
fission-0345
fission-0345
fission-0345
fission-0345
fission-0345
fission-0345
fission-0345
fission-0345
fission-0345
fission-0345
fission-0345
fission-0345
fission-0345
fission-0345
fission-0345
fission-0345
fission-0345
fission-0345
fission-0345
fission-0345
fission-0345
fission-0349
fission-0349
fission-0349
fission-0349
fission-0349
fission-0349
fission-0349
fission-0349
fission-0349
fission-0349
fission-0349
fission-0349
fission-0349
fission-0349
fission-0349
fission-0349
fission-0349
fission-0349
fission-0349
fission-0349
fission-0349
fission-0349
fission-0349
fission-0349
fission-0349
fission-0349
fission-0349
fission-0349
fission-0349
fission-0349
fission-0349
fission-0349
fission-0352
fission-0352
fission-0352
fission-0352
fission-0352
fission-0352
fission-0352
fission-0352
fission-0352
fission-0352
fission-0352
fission-0352
fission-0352
fission-0352
fission-0352
fission-0352
fission-0352
fission-0352
fission-0352
fission-0352
fission-0352
fission-0352
fission-0352
fission-0352
fission-0352
fission-0352
fission-0352
fission-0352
fission-0352
fission-0352
fission-0352
fission-0352
fission-0353
fission-0353
fission-0353
fission-0353
fission-0353
fission-0353
fission-0353
fission-0353
fission-0353
fission-0353
fission-0353
fission-0353
fission-0353
fission-0353
fission-0353
fission-0353
fission-0353
fission-0353
fission-0353
fission-0353
fission-0353
fission-0353
fission-0353
fission-0353
fission-0353
fission-0353
fission-0353
fission-0353
fission-0353
fission-0353
fission-0353
fission-0353
fission-0354
fission-0354
fission-0354
fission-0354
fission-0354
fission-0354
fission-0354
fission-0354
fission-0354
fission-0354
fission-0354
fission-0354
fission-0354
fission-0354
fission-0354
fission-0354
fission-0354
fission-0354
fission-0354
fission-0354
fission-0354
fission-0354
fission-0354
fission-0354
fission-0354
fission-0354
fission-0354
fission-0354
fission-0354
fission-0354
fission-0354
fission-0354
fission-0359
fission-0359
fission-0359
fission-0359
fission-0359
fission-0359
fission-0359
fission-0359
fission-0359
fission-0359
fission-0359
fission-0359
fission-0359
fission-0359
fission-0359
fission-0359
fission-0359
fission-0359
fission-0359
fission-0359
fission-0359
fission-0359
fission-0359
fission-0359
fission-0359
fission-0359
fission-0359
fission-0359
fission-0359
fission-0359
fission-0359
fission-0359
fission-0336
fission-0336
fission-0336
fission-0336
fission-0336
fission-0336
fission-0336
fission-0336
fission-0336
fission-0336
fission-0336
fission-0336
fission-0336
fission-0336
fission-0336
fission-0336
fission-0336
fission-0336
fission-0336
fission-0336
fission-0336
fission-0336
fission-0336
fission-0336
fission-0336
fission-0336
fission-0336
fission-0336
fission-0336
fission-0336
fission-0336
fission-0336
fission-0337
fission-0337
fission-0337
fission-0337
fission-0337
fission-0337
fission-0337
fission-0337
fission-0337
fission-0337
fission-0337
fission-0337
fission-0337
fission-0337
fission-0337
fission-0337
fission-0337
fission-0337
fission-0337
fission-0337
fission-0337
fission-0337
fission-0337
fission-0337
fission-0337
fission-0337
fission-0337
fission-0337
fission-0337
fission-0337
fission-0337
fission-0337
fission-0362
fission-0362
fission-0362
fission-0362
fission-0362
fission-0362
fission-0362
fission-0362
fission-0362
fission-0362
fission-0362
fission-0362
fission-0362
fission-0362
fission-0362
fission-0362
fission-0362
fission-0362
fission-0362
fission-0362
fission-0362
fission-0362
fission-0362
fission-0362
fission-0362
fission-0362
fission-0362
fission-0362
fission-0362
fission-0362
fission-0362
fission-0362
fission-0338
fission-0338
fission-0338
fission-0338
fission-0338
fission-0338
fission-0338
fission-0338
fission-0338
fission-0338
fission-0338
fission-0338
fission-0338
fission-0338
fission-0338
fission-0338
fission-0338
fission-0338
fission-0338
fission-0338
fission-0338
fission-0338
fission-0338
fission-0338
fission-0338
fission-0338
fission-0338
fission-0338
fission-0338
fission-0338
fission-0338
fission-0338
fission-0340
fission-0340
fission-0340
fission-0340
fission-0340
fission-0340
fission-0340
fission-0340
fission-0340
fission-0340
fission-0340
fission-0340
fission-0340
fission-0340
fission-0340
fission-0340
fission-0340
fission-0340
fission-0340
fission-0340
fission-0340
fission-0340
fission-0340
fission-0340
fission-0340
fission-0340
fission-0340
fission-0340
fission-0340
fission-0340
fission-0340
fission-0340

The following PBS extra args (PBS_EXTRA_ARGS) will be used: -P ldrd
The following lammps extra args (LAMMPS_EXTRA_ARGS) will be used:
LAMMPS (16 Feb 2016)
#log		log.c
units           metal
dimension       3
boundary        p p p
atom_style      atomic
shell         mkdir  cfg
shell         mkdir  dump

# ----------------------- ATOM DEFINITION & Force Field -------------
# ----------------------- ATOM DEFINITION ----------------------------
lattice         fcc 4.024845358 #origin 0.0 0.0 0.0 orient x 1 -1 0 orient y 1 1 -2 orient z 1 1 1
Lattice spacing in x,y,z = 4.02485 4.02485 4.02485
variable        Lx equal 52
variable        Ly equal 2
variable        Lz equal 208
variable        boxLZ equal 218
region          SYSTEM block -52 52 -2 2 -208 0 units lattice
region          BOX block -52 52 -2 2 -218 5 units lattice
create_box      1 BOX
Created orthogonal box = (-209.292 -8.04969 -877.416) to (209.292 8.04969 20.1242)
create_atoms    1 region SYSTEM
Created 346944 atoms

delete_atoms     porosity BOX 0.001 7176    ##random seed <RAND1>
Deleted 340 atoms, new total = 346604

#---------------------------------------------------------------------------------
pair_style      eam/alloy
pair_coeff  	  * * Al_wkg_MSMSE_2009.set Al

#----------------------------------------------------------------------------------
velocity       all create 300.0 13587 mom yes rot yes dist gaussian         ##random seed <RAND2>

fix             1 all npt temp 300 300 0.1 iso 0.0 0.0 2
run      10000
  1 neighbor list requests
  update every 1 steps, delay 10 steps, check yes
Setting up Verlet run ...
  Unit style  : metal
  Current step: 0
  Time step   : 0.001
Step Temp E_pair E_mol TotEng Press Volume
0          300   -916076.03            0   -902635.45    1898.2529    6048473.6
Loop time of 62.2419 on 512 procs for 10000 steps with 346604 atoms

unfix 1

fix            2 all nvt temp 300.0 300.0 0.1

run      10000
Setting up Verlet run ...
  Unit style  : metal
  Current step: 10000
  Time step   : 0.001
Step Temp E_pair E_mol TotEng Press
10000    299.62694   -902022.57            0    -888598.7   -9.6380367
Loop time of 60.7908 on 512 procs for 10000 steps with 346604 atoms

reset_timestep 0
unfix    2
#---------------------- DEFINE Laser GERION and GROUP ----------------
region       R1  block -75  75  INF  INF  INF  5  units box
group        G1 region R1
123554 atoms in group G1
group        G2 subtract all G1
223050 atoms in group G2

#define     temperature/pressure calculation  group
variable    x1atom atom "x>=0  &&  x<4 &&  z>-40 && z<1"     ##NEW!!!!!!!!!!!!
variable    x2atom atom "x>=-209.292  &&  x<-205.292 &&  z>-40 && z<1"
variable    x3atom atom "x>=0  &&  x<4 &&  z>-20 && z<1"
variable    x4atom atom "x>=-209.292  &&  x<-205.292 &&  z>-20 && z<1"
variable    x5atom atom "x>=196  &&  x<200 &&  z>-40 && z<1"

group       x1atom variable x1atom
148 atoms in group x1atom
group       x2atom variable x2atom
160 atoms in group x2atom
group       x3atom variable x3atom
69 atoms in group x3atom
group       x4atom variable x4atom
80 atoms in group x4atom
group       x5atom variable x5atom
160 atoms in group x5atom

compute      COM1x x1atom com
compute      COM2x x2atom com
compute      COM3x x3atom com
compute      COM4x x4atom com
compute      COM5x x5atom com

compute      COMall all com

#Temperature profile
#variable      Tprofile atom 300*(1+(step/5000)*2.5*exp(z/40))
variable      Tprofile atom 300*(1+(step/5000)*2.5*exp(z/75))

# ------------------------- SETTINGS ---------------------------------
thermo          100
thermo_style    custom step lx pxx pyy pzz temp c_COM1x[1] c_COM1x[2] c_COM1x[3] c_COM2x[1] c_COM2x[2] c_COM2x[3] c_COM3x[1] c_COM3x[2] c_COM3x[3] c_COM4x[1] c_COM4x[2] c_COM4x[3]  c_COM5x[1] c_COM5x[2] c_COM5x[3] c_COMall[1] c_COMall[2] c_COMall[3]

timestep       0.002

compute dispall all displace/atom
# ---------------- Run Laser Material Interaction --------------------
#dump          1 all custom 1000 dump/z1dump.atom id type x y z c_dispall[1]  c_dispall[2]  c_dispall[3] c_dispall[4]
#dump          2 all cfg 100 cfg/*.cfg mass type xs ys zs
#dump_modify   2 element Al

#relax for 2 PS
#fix           1 all nvt temp 300.0 300.0 0.1
#run  1000
#unfix         1

fix           1  all nve
fix           3temp  G1  langevin  v_Tprofile  0  0.1  378411   #TEST ALL
run           5000
Setting up Verlet run ...
  Unit style  : metal
  Current step: 0
  Time step   : 0.002
Step Lx Pxx Pyy Pzz Temp COM1x[1] COM1x[2] COM1x[3] COM2x[1] COM2x[2] COM2x[3] COM3x[1] COM3x[2] COM3x[3] COM4x[1] COM4x[2] COM4x[3] COM5x[1] COM5x[2] COM5x[3] COMall[1 COMall[2 COMall[3
0    421.53764    215.80389    192.84635   -83.596205    300.53963    1.9786344   -1.2826683   -20.568306   -207.83616  -0.99205027   -19.902977     2.172978   -1.4480746   -10.102525   -207.82931   -1.0239626   -9.7818826    197.51527   -1.0687804   -19.839748   -1.0228892   -1.0133993   -418.52848
Averages over the last 26 of 51 rows, steps 2500 to 5000:
Lx Pxx Pyy Pzz Temp COM1x[1] COM1x[2] COM1x[3] COM2x[1] COM2x[2] COM2x[3] COM3x[1] COM3x[2] COM3x[3] COM4x[1] COM4x[2] COM4x[3] COM5x[1] COM5x[2] COM5x[3] COMall[1 COMall[2 COMall[3
421.538 1178.41 1133.9 652.11 322.615 1.9244 -1.34832 -20.2779 -207.782 -1.04344 -19.8227 2.13799 -1.45277 -9.65138 -207.784 -1.03909 -9.65458 197.624 -1.03145 -19.8268 -1.01988 -1.01497 -418.544
Loop time of 30.4698 on 512 procs for 5000 steps with 346604 atoms

variable  com1_x equal "c_COM1x[1]"
variable  com1_y equal "c_COM1x[2]"
variable  com1_z equal "c_COM1x[3]"
variable  com2_x equal "c_COM2x[1]"
variable  com2_y equal "c_COM2x[2]"
variable  com2_z equal "c_COM2x[3]"
variable  com3_x equal "c_COM3x[1]"
variable  com3_y equal "c_COM3x[2]"
variable  com3_z equal "c_COM3x[3]"
variable  com4_x equal "c_COM4x[1]"
variable  com4_y equal "c_COM4x[2]"
variable  com4_z equal "c_COM4x[3]"
variable  com5_x equal "c_COM5x[1]"
variable  com5_y equal "c_COM5x[2]"
variable  com5_z equal "c_COM5x[3]"
variable  comall_x equal "c_COMall[1]"
variable  comall_y equal "c_COMall[2]"
variable  comall_z equal "c_COMall[3]"

#-------------------------- Wave Propagation -------------------------
unfix        3temp
run          1000000
Setting up Verlet run ...
  Unit style  : metal
  Current step: 5000
  Time step   : 0.002
Step Lx Pxx Pyy Pzz Temp COM1x[1] COM1x[2] COM1x[3] COM2x[1] COM2x[2] COM2x[3] COM3x[1] COM3x[2] COM3x[3] COM4x[1] COM4x[2] COM4x[3] COM5x[1] COM5x[2] COM5x[3] COMall[1 COMall[2 COMall[3
5000    421.53764      1455.04     1356.529    784.70323    330.91807    1.9253393   -1.2633089   -20.200298   -207.73749  -0.95955065    -19.57831     2.167797   -1.2914429   -9.5016508   -207.71514  -0.90387686   -9.4161942    197.70423   -1.0329367   -19.607672   -1.0248457   -1.0089637   -418.54527
Averages over the last 5001 of 10001 rows, steps 505000 to 1005000:
Lx Pxx Pyy Pzz Temp COM1x[1] COM1x[2] COM1x[3] COM2x[1] COM2x[2] COM2x[3] COM3x[1] COM3x[2] COM3x[3] COM4x[1] COM4x[2] COM4x[3] COM5x[1] COM5x[2] COM5x[3] COMall[1 COMall[2 COMall[3
421.538 1028.09 1005.39 -7.46084 330.995 -18.1624 3.46155 -33.0067 -227.897 3.85946 -32.1609 -17.9283 3.31542 -22.5576 -227.894 3.8595 -21.9992 177.431 3.85939 -32.1611 -21.1894 3.86212 -431.533
Loop time of 5814.79 on 512 procs for 1000000 steps with 346604 atoms
