fission-0251
fission-0251
fission-0251
fission-0251
fission-0251
fission-0251
fission-0251
fission-0251
fission-0251
fission-0251
fission-0251
fission-0251
fission-0251
fission-0251
fission-0251
fission-0251
fission-0251
fission-0251
fission-0251
fission-0251
fission-0251
fission-0251
fission-0251
fission-0251
fission-0251
fission-0251
fission-0251
fission-0251
fission-0251
fission-0251
fission-0251
fission-0251
fission-0234
fission-0234
fission-0234
fission-0234
fission-0234
fission-0234
fission-0234
fission-0234
fission-0234
fission-0234
fission-0234
fission-0234
fission-0234
fission-0234
fission-0234
fission-0234
fission-0234
fission-0234
fission-0234
fission-0234
fission-0234
fission-0234
fission-0234
fission-0234
fission-0234
fission-0234
fission-0234
fission-0234
fission-0234
fission-0234
fission-0234
fission-0234
fission-0236
fission-0236
fission-0236
fission-0236
fission-0236
fission-0236
fission-0236
fission-0236
fission-0236
fission-0236
fission-0236
fission-0236
fission-0236
fission-0236
fission-0236
fission-0236
fission-0236
fission-0236
fission-0236
fission-0236
fission-0236
fission-0236
fission-0236
fission-0236
fission-0236
fission-0236
fission-0236
fission-0236
fission-0236
fission-0236
fission-0236
fission-0236
fission-0233
fission-0233
fission-0233
fission-0233
fission-0233
fission-0233
fission-0233
fission-0233
fission-0233
fission-0233
fission-0233
fission-0233
fission-0233
fission-0233
fission-0233
fission-0233
fission-0233
fission-0233
fission-0233
fission-0233
fission-0233
fission-0233
fission-0233
fission-0233
fission-0233
fission-0233
fission-0233
fission-0233
fission-0233
fission-0233
fission-0233
fission-0233
fission-0235
fission-0235
fission-0235
fission-0235
fission-0235
fission-0235
fission-0235
fission-0235
fission-0235
fission-0235
fission-0235
fission-0235
fission-0235
fission-0235
fission-0235
fission-0235
fission-0235
fission-0235
fission-0235
fission-0235
fission-0235
fission-0235
fission-0235
fission-0235
fission-0235
fission-0235
fission-0235
fission-0235
fission-0235
fission-0235
fission-0235
fission-0235
fission-0239
fission-0239
fission-0239
fission-0239
fission-0239
fission-0239
fission-0239
fission-0239
fission-0239
fission-0239
fission-0239
fission-0239
fission-0239
fission-0239
fission-0239
fission-0239
fission-0239
fission-0239
fission-0239
fission-0239
fission-0239
fission-0239
fission-0239
fission-0239
fission-0239
fission-0239
fission-0239
fission-0239
fission-0239
fission-0239
fission-0239
fission-0239
fission-0240
fission-0240
fission-0240
fission-0240
fission-0240
fission-0240
fission-0240
fission-0240
fission-0240
fission-0240
fission-0240
fission-0240
fission-0240
fission-0240
fission-0240
fission-0240
fission-0240
fission-0240
fission-0240
fission-0240
fission-0240
fission-0240
fission-0240
fission-0240
fission-0240
fission-0240
fission-0240
fission-0240
fission-0240
fission-0240
fission-0240
fission-0240
fission-0241
fission-0241
fission-0241
fission-0241
fission-0241
fission-0241
fission-0241
fission-0241
fission-0241
fission-0241
fission-0241
fission-0241
fission-0241
fission-0241
fission-0241
fission-0241
fission-0241
fission-0241
fission-0241
fission-0241
fission-0241
fission-0241
fission-0241
fission-0241
fission-0241
fission-0241
fission-0241
fission-0241
fission-0241
fission-0241
fission-0241
fission-0241
fission-0226
fission-0226
fission-0226
fission-0226
fission-0226
fission-0226
fission-0226
fission-0226
fission-0226
fission-0226
fission-0226
fission-0226
fission-0226
fission-0226
fission-0226
fission-0226
fission-0226
fission-0226
fission-0226
fission-0226
fission-0226
fission-0226
fission-0226
fission-0226
fission-0226
fission-0226
fission-0226
fission-0226
fission-0226
fission-0226
fission-0226
fission-0226
fission-0227
fission-0227
fission-0227
fission-0227
fission-0227
fission-0227
fission-0227
fission-0227
fission-0227
fission-0227
fission-0227
fission-0227
fission-0227
fission-0227
fission-0227
fission-0227
fission-0227
fission-0227
fission-0227
fission-0227
fission-0227
fission-0227
fission-0227
fission-0227
fission-0227
fission-0227
fission-0227
fission-0227
fission-0227
fission-0227
fission-0227
fission-0227
fission-0228
fission-0228
fission-0228
fission-0228
fission-0228
fission-0228
fission-0228
fission-0228
fission-0228
fission-0228
fission-0228
fission-0228
fission-0228
fission-0228
fission-0228
fission-0228
fission-0228
fission-0228
fission-0228
fission-0228
fission-0228
fission-0228
fission-0228
fission-0228
fission-0228
fission-0228
fission-0228
fission-0228
fission-0228
fission-0228
fission-0228
fission-0228
fission-0230
fission-0230
fission-0230
fission-0230
fission-0230
fission-0230
fission-0230
fission-0230
fission-0230
fission-0230
fission-0230
fission-0230
fission-0230
fission-0230
fission-0230
fission-0230
fission-0230
fission-0230
fission-0230
fission-0230
fission-0230
fission-0230
fission-0230
fission-0230
fission-0230
fission-0230
fission-0230
fission-0230
fission-0230
fission-0230
fission-0230
fission-0230
fission-0232
fission-0232
fission-0232
fission-0232
fission-0232
fission-0232
fission-0232
fission-0232
fission-0232
fission-0232
fission-0232
fission-0232
fission-0232
fission-0232
fission-0232
fission-0232
fission-0232
fission-0232
fission-0232
fission-0232
fission-0232
fission-0232
fission-0232
fission-0232
fission-0232
fission-0232
fission-0232
fission-0232
fission-0232
fission-0232
fission-0232
fission-0232
fission-0246
fission-0246
fission-0246
fission-0246
fission-0246
fission-0246
fission-0246
fission-0246
fission-0246
fission-0246
fission-0246
fission-0246
fission-0246
fission-0246
fission-0246
fission-0246
fission-0246
fission-0246
fission-0246
fission-0246
fission-0246
fission-0246
fission-0246
fission-0246
fission-0246
fission-0246
fission-0246
fission-0246
fission-0246
fission-0246
fission-0246
fission-0246
fission-0247
fission-0247
fission-0247
fission-0247
fission-0247
fission-0247
fission-0247
fission-0247
fission-0247
fission-0247
fission-0247
fission-0247
fission-0247
fission-0247
fission-0247
fission-0247
fission-0247
fission-0247
fission-0247
fission-0247
fission-0247
fission-0247
fission-0247
fission-0247
fission-0247
fission-0247
fission-0247
fission-0247
fission-0247
fission-0247
fission-0247
fission-0247
fission-0248
fission-0248
fission-0248
fission-0248
fission-0248
fission-0248
fission-0248
fission-0248
fission-0248
fission-0248
fission-0248
fission-0248
fission-0248
fission-0248
fission-0248
fission-0248
fission-0248
fission-0248
fission-0248
fission-0248
fission-0248
fission-0248
fission-0248
fission-0248
fission-0248
fission-0248
fission-0248
fission-0248
fission-0248
fission-0248
fission-0248
fission-0248

The following PBS extra args (PBS_EXTRA_ARGS) will be used: -P ldrd
The following lammps extra args (LAMMPS_EXTRA_ARGS) will be used:
LAMMPS (16 Feb 2016)
#log		log.c
units           metal
dimension       3
boundary        p p p
atom_style      atomic
shell         mkdir  cfg
shell         mkdir  dump

# ----------------------- ATOM DEFINITION & Force Field -------------
# ----------------------- ATOM DEFINITION ----------------------------
lattice         fcc 4.024845358 #origin 0.0 0.0 0.0 orient x 1 -1 0 orient y 1 1 -2 orient z 1 1 1
Lattice spacing in x,y,z = 4.02485 4.02485 4.02485
variable        Lx equal 52
variable        Ly equal 2
variable        Lz equal 208
variable        boxLZ equal 218
region          SYSTEM block -52 52 -2 2 -208 0 units lattice
region          BOX block -52 52 -2 2 -218 5 units lattice
create_box      1 BOX
Created orthogonal box = (-209.292 -8.04969 -877.416) to (209.292 8.04969 20.1242)
create_atoms    1 region SYSTEM
Created 346944 atoms

delete_atoms     porosity BOX 0.001 4857    ##random seed <RAND1>
Deleted 348 atoms, new total = 346596

#---------------------------------------------------------------------------------
pair_style      eam/alloy
pair_coeff  	  * * Al_wkg_MSMSE_2009.set Al

#----------------------------------------------------------------------------------
velocity       all create 300.0 13798 mom yes rot yes dist gaussian         ##random seed <RAND2>

fix             1 all npt temp 300 300 0.1 iso 0.0 0.0 2
run      10000
  1 neighbor list requests
  update every 1 steps, delay 10 steps, check yes
Setting up Verlet run ...
  Unit style  : metal
  Current step: 0
  Time step   : 0.001
Step Temp E_pair E_mol TotEng Press Volume
0          300   -916047.59            0   -902607.31    1889.8022    6048473.6
Loop time of 59.6135 on 512 procs for 10000 steps with 346596 atoms

unfix 1

fix            2 all nvt temp 300.0 300.0 0.1

run      10000
Setting up Verlet run ...
  Unit style  : metal
  Current step: 10000
  Time step   : 0.001
Step Temp E_pair E_mol TotEng Press
10000    299.96004   -902012.08            0    -888573.6    18.456149
Loop time of 59.7644 on 512 procs for 10000 steps with 346596 atoms

reset_timestep 0
unfix    2
#---------------------- DEFINE Laser GERION and GROUP ----------------
region       R1  block -75  75  INF  INF  INF  5  units box
group        G1 region R1
123372 atoms in group G1
group        G2 subtract all G1
223224 atoms in group G2

#define     temperature/pressure calculation  group
variable    x1atom atom "x>=0  &&  x<4 &&  z>-40 && z<1"     ##NEW!!!!!!!!!!!!
variable    x2atom atom "x>=-209.292  &&  x<-205.292 &&  z>-40 && z<1"
variable    x3atom atom "x>=0  &&  x<4 &&  z>-20 && z<1"
variable    x4atom atom "x>=-209.292  &&  x<-205.292 &&  z>-20 && z<1"
variable    x5atom atom "x>=196  &&  x<200 &&  z>-40 && z<1"

group       x1atom variable x1atom
148 atoms in group x1atom
group       x2atom variable x2atom
160 atoms in group x2atom
group       x3atom variable x3atom
75 atoms in group x3atom
group       x4atom variable x4atom
80 atoms in group x4atom
group       x5atom variable x5atom
159 atoms in group x5atom

compute      COM1x x1atom com
compute      COM2x x2atom com
compute      COM3x x3atom com
compute      COM4x x4atom com
compute      COM5x x5atom com

compute      COMall all com

#Temperature profile
#variable      Tprofile atom 300*(1+(step/5000)*2.5*exp(z/40))
variable      Tprofile atom 300*(1+(step/5000)*2.5*exp(z/75))

# ------------------------- SETTINGS ---------------------------------
thermo          100
thermo_style    custom step lx pxx pyy pzz temp c_COM1x[1] c_COM1x[2] c_COM1x[3] c_COM2x[1] c_COM2x[2] c_COM2x[3] c_COM3x[1] c_COM3x[2] c_COM3x[3] c_COM4x[1] c_COM4x[2] c_COM4x[3]  c_COM5x[1] c_COM5x[2] c_COM5x[3] c_COMall[1] c_COMall[2] c_COMall[3]

timestep       0.002

compute dispall all displace/atom
# ---------------- Run Laser Material Interaction --------------------
#dump          1 all custom 1000 dump/z1dump.atom id type x y z c_dispall[1]  c_dispall[2]  c_dispall[3] c_dispall[4]
#dump          2 all cfg 100 cfg/*.cfg mass type xs ys zs
#dump_modify   2 element Al

#relax for 2 PS
#fix           1 all nvt temp 300.0 300.0 0.1
#run  1000
#unfix         1

fix           1  all nve
fix           3temp  G1  langevin  v_Tprofile  0  0.1  378411   #TEST ALL
run           5000
Setting up Verlet run ...
  Unit style  : metal
  Current step: 0
  Time step   : 0.002
Step Lx Pxx Pyy Pzz Temp COM1x[1] COM1x[2] COM1x[3] COM2x[1] COM2x[2] COM2x[3] COM3x[1] COM3x[2] COM3x[3] COM4x[1] COM4x[2] COM4x[3] COM5x[1] COM5x[2] COM5x[3] COMall[1 COMall[2 COMall[3
0    421.53036    183.38115    182.31541   -71.381948    300.64463    1.5998024  -0.96927083   -19.986888   -207.69027  -0.79354703   -19.750909    1.3196705   -1.2505448   -10.203029   -207.70584   -0.8033461   -9.6083376    197.64318  -0.78414593   -19.802498   -1.0163054   -1.0132181   -418.49968
Averages over the last 26 of 51 rows, steps 2500 to 5000:
Lx Pxx Pyy Pzz Temp COM1x[1] COM1x[2] COM1x[3] COM2x[1] COM2x[2] COM2x[3] COM3x[1] COM3x[2] COM3x[3] COM4x[1] COM4x[2] COM4x[3] COM5x[1] COM5x[2] COM5x[3] COMall[1 COMall[2 COMall[3
421.53 1327.51 1274.2 909.162 322.425 1.5077 -0.966946 -19.593 -207.805 -1.01899 -19.9102 1.1684 -1.25531 -9.63447 -207.812 -1.01559 -9.74356 197.606 -0.96729 -19.9707 -1.03759 -0.993846 -418.517
Loop time of 31.0944 on 512 procs for 5000 steps with 346596 atoms

variable  com1_x equal "c_COM1x[1]"
variable  com1_y equal "c_COM1x[2]"
variable  com1_z equal "c_COM1x[3]"
variable  com2_x equal "c_COM2x[1]"
variable  com2_y equal "c_COM2x[2]"
variable  com2_z equal "c_COM2x[3]"
variable  com3_x equal "c_COM3x[1]"
variable  com3_y equal "c_COM3x[2]"
variable  com3_z equal "c_COM3x[3]"
variable  com4_x equal "c_COM4x[1]"
variable  com4_y equal "c_COM4x[2]"
variable  com4_z equal "c_COM4x[3]"
variable  com5_x equal "c_COM5x[1]"
variable  com5_y equal "c_COM5x[2]"
variable  com5_z equal "c_COM5x[3]"
variable  comall_x equal "c_COMall[1]"
variable  comall_y equal "c_COMall[2]"
variable  comall_z equal "c_COMall[3]"

#-------------------------- Wave Propagation -------------------------
unfix        3temp
run          1000000
Setting up Verlet run ...
  Unit style  : metal
  Current step: 5000
  Time step   : 0.002
Step Lx Pxx Pyy Pzz Temp COM1x[1] COM1x[2] COM1x[3] COM2x[1] COM2x[2] COM2x[3] COM3x[1] COM3x[2] COM3x[3] COM4x[1] COM4x[2] COM4x[3] COM5x[1] COM5x[2] COM5x[3] COMall[1 COMall[2 COMall[3
5000    421.53036     1633.404     1532.756     1050.604    330.47199    1.4880047   -0.7548799   -19.478537   -207.70574   -1.0575731   -19.775903    1.1394506  -0.98597549   -9.4388515   -207.65406   -1.0580341    -9.630682    197.71436   -1.0190844   -19.825191   -1.0281015   -1.0067114   -418.52423
Averages over the last 5001 of 10001 rows, steps 505000 to 1005000:
Lx Pxx Pyy Pzz Temp COM1x[1] COM1x[2] COM1x[3] COM2x[1] COM2x[2] COM2x[3] COM3x[1] COM3x[2] COM3x[3] COM4x[1] COM4x[2] COM4x[3] COM5x[1] COM5x[2] COM5x[3] COMall[1 COMall[2 COMall[3
421.53 1046.7 1024.28 -7.44149 331.223 -1.12877 -5.80573 -25.6475 -210.434 -5.9017 -25.6129 -1.44624 -6.10436 -15.8616 -210.437 -5.90149 -15.45 194.893 -5.85747 -25.6747 -3.71318 -5.9013 -424.967
Loop time of 5885.52 on 512 procs for 1000000 steps with 346596 atoms
