fission-0072
fission-0072
fission-0072
fission-0072
fission-0072
fission-0072
fission-0072
fission-0072
fission-0072
fission-0072
fission-0072
fission-0072
fission-0072
fission-0072
fission-0072
fission-0072
fission-0072
fission-0072
fission-0072
fission-0072
fission-0072
fission-0072
fission-0072
fission-0072
fission-0072
fission-0072
fission-0072
fission-0072
fission-0072
fission-0072
fission-0072
fission-0072
fission-0057
fission-0057
fission-0057
fission-0057
fission-0057
fission-0057
fission-0057
fission-0057
fission-0057
fission-0057
fission-0057
fission-0057
fission-0057
fission-0057
fission-0057
fission-0057
fission-0057
fission-0057
fission-0057
fission-0057
fission-0057
fission-0057
fission-0057
fission-0057
fission-0057
fission-0057
fission-0057
fission-0057
fission-0057
fission-0057
fission-0057
fission-0057
fission-0084
fission-0084
fission-0084
fission-0084
fission-0084
fission-0084
fission-0084
fission-0084
fission-0084
fission-0084
fission-0084
fission-0084
fission-0084
fission-0084
fission-0084
fission-0084
fission-0084
fission-0084
fission-0084
fission-0084
fission-0084
fission-0084
fission-0084
fission-0084
fission-0084
fission-0084
fission-0084
fission-0084
fission-0084
fission-0084
fission-0084
fission-0084
fission-0062
fission-0062
fission-0062
fission-0062
fission-0062
fission-0062
fission-0062
fission-0062
fission-0062
fission-0062
fission-0062
fission-0062
fission-0062
fission-0062
fission-0062
fission-0062
fission-0062
fission-0062
fission-0062
fission-0062
fission-0062
fission-0062
fission-0062
fission-0062
fission-0062
fission-0062
fission-0062
fission-0062
fission-0062
fission-0062
fission-0062
fission-0062
fission-0063
fission-0063
fission-0063
fission-0063
fission-0063
fission-0063
fission-0063
fission-0063
fission-0063
fission-0063
fission-0063
fission-0063
fission-0063
fission-0063
fission-0063
fission-0063
fission-0063
fission-0063
fission-0063
fission-0063
fission-0063
fission-0063
fission-0063
fission-0063
fission-0063
fission-0063
fission-0063
fission-0063
fission-0063
fission-0063
fission-0063
fission-0063
fission-0064
fission-0064
fission-0064
fission-0064
fission-0064
fission-0064
fission-0064
fission-0064
fission-0064
fission-0064
fission-0064
fission-0064
fission-0064
fission-0064
fission-0064
fission-0064
fission-0064
fission-0064
fission-0064
fission-0064
fission-0064
fission-0064
fission-0064
fission-0064
fission-0064
fission-0064
fission-0064
fission-0064
fission-0064
fission-0064
fission-0064
fission-0064
fission-0067
fission-0067
fission-0067
fission-0067
fission-0067
fission-0067
fission-0067
fission-0067
fission-0067
fission-0067
fission-0067
fission-0067
fission-0067
fission-0067
fission-0067
fission-0067
fission-0067
fission-0067
fission-0067
fission-0067
fission-0067
fission-0067
fission-0067
fission-0067
fission-0067
fission-0067
fission-0067
fission-0067
fission-0067
fission-0067
fission-0067
fission-0067
fission-0082
fission-0082
fission-0082
fission-0082
fission-0082
fission-0082
fission-0082
fission-0082
fission-0082
fission-0082
fission-0082
fission-0082
fission-0082
fission-0082
fission-0082
fission-0082
fission-0082
fission-0082
fission-0082
fission-0082
fission-0082
fission-0082
fission-0082
fission-0082
fission-0082
fission-0082
fission-0082
fission-0082
fission-0082
fission-0082
fission-0082
fission-0082
fission-0079
fission-0079
fission-0079
fission-0079
fission-0079
fission-0079
fission-0079
fission-0079
fission-0079
fission-0079
fission-0079
fission-0079
fission-0079
fission-0079
fission-0079
fission-0079
fission-0079
fission-0079
fission-0079
fission-0079
fission-0079
fission-0079
fission-0079
fission-0079
fission-0079
fission-0079
fission-0079
fission-0079
fission-0079
fission-0079
fission-0079
fission-0079
fission-0059
fission-0059
fission-0059
fission-0059
fission-0059
fission-0059
fission-0059
fission-0059
fission-0059
fission-0059
fission-0059
fission-0059
fission-0059
fission-0059
fission-0059
fission-0059
fission-0059
fission-0059
fission-0059
fission-0059
fission-0059
fission-0059
fission-0059
fission-0059
fission-0059
fission-0059
fission-0059
fission-0059
fission-0059
fission-0059
fission-0059
fission-0059
fission-0060
fission-0060
fission-0060
fission-0060
fission-0060
fission-0060
fission-0060
fission-0060
fission-0060
fission-0060
fission-0060
fission-0060
fission-0060
fission-0060
fission-0060
fission-0060
fission-0060
fission-0060
fission-0060
fission-0060
fission-0060
fission-0060
fission-0060
fission-0060
fission-0060
fission-0060
fission-0060
fission-0060
fission-0060
fission-0060
fission-0060
fission-0060
fission-0073
fission-0073
fission-0073
fission-0073
fission-0073
fission-0073
fission-0073
fission-0073
fission-0073
fission-0073
fission-0073
fission-0073
fission-0073
fission-0073
fission-0073
fission-0073
fission-0073
fission-0073
fission-0073
fission-0073
fission-0073
fission-0073
fission-0073
fission-0073
fission-0073
fission-0073
fission-0073
fission-0073
fission-0073
fission-0073
fission-0073
fission-0073
fission-0078
fission-0078
fission-0078
fission-0078
fission-0078
fission-0078
fission-0078
fission-0078
fission-0078
fission-0078
fission-0078
fission-0078
fission-0078
fission-0078
fission-0078
fission-0078
fission-0078
fission-0078
fission-0078
fission-0078
fission-0078
fission-0078
fission-0078
fission-0078
fission-0078
fission-0078
fission-0078
fission-0078
fission-0078
fission-0078
fission-0078
fission-0078
fission-0080
fission-0080
fission-0080
fission-0080
fission-0080
fission-0080
fission-0080
fission-0080
fission-0080
fission-0080
fission-0080
fission-0080
fission-0080
fission-0080
fission-0080
fission-0080
fission-0080
fission-0080
fission-0080
fission-0080
fission-0080
fission-0080
fission-0080
fission-0080
fission-0080
fission-0080
fission-0080
fission-0080
fission-0080
fission-0080
fission-0080
fission-0080
fission-0076
fission-0076
fission-0076
fission-0076
fission-0076
fission-0076
fission-0076
fission-0076
fission-0076
fission-0076
fission-0076
fission-0076
fission-0076
fission-0076
fission-0076
fission-0076
fission-0076
fission-0076
fission-0076
fission-0076
fission-0076
fission-0076
fission-0076
fission-0076
fission-0076
fission-0076
fission-0076
fission-0076
fission-0076
fission-0076
fission-0076
fission-0076
fission-0081
fission-0081
fission-0081
fission-0081
fission-0081
fission-0081
fission-0081
fission-0081
fission-0081
fission-0081
fission-0081
fission-0081
fission-0081
fission-0081
fission-0081
fission-0081
fission-0081
fission-0081
fission-0081
fission-0081
fission-0081
fission-0081
fission-0081
fission-0081
fission-0081
fission-0081
fission-0081
fission-0081
fission-0081
fission-0081
fission-0081
fission-0081

The following PBS extra args (PBS_EXTRA_ARGS) will be used: -P ldrd
The following lammps extra args (LAMMPS_EXTRA_ARGS) will be used:
LAMMPS (16 Feb 2016)
#log		log.c
units           metal
dimension       3
boundary        p p p
atom_style      atomic
shell         mkdir  cfg
shell         mkdir  dump

# ----------------------- ATOM DEFINITION & Force Field -------------
lattice         fcc 3.615 #origin 0.0 0.0 0.0 orient x 1 -1 0 orient y 1 1 -2 orient z 1 1 1
Lattice spacing in x,y,z = 3.615 3.615 3.615
variable        Lx equal 65
variable        Ly equal 3
variable        Lz equal 260
variable        boxLZ equal 270
region          SYSTEM block -65 65 -3 3 -260 0 units lattice
region          BOX block -65 65 -3 3 -270 5 units lattice
create_box      1 BOX
Created orthogonal box = (-234.975 -10.845 -976.05) to (234.975 10.845 18.075)
create_atoms    1 region SYSTEM
Created 812760 atoms

delete_atoms     porosity BOX 0.0002 20528
Deleted 188 atoms, new total = 812572

#---------------------------------------------------------------------

pair_style      eam/alloy
pair_coeff  	  * * Cu01.eam.alloy Cu

#----------------------------------------------------------------------
velocity       all create 300.0 11810 mom yes rot yes dist gaussian
fix             1 all npt temp 300 300 0.1 iso 0.0 0.0 2
run      10000
  1 neighbor list requests
  update every 1 steps, delay 10 steps, check yes
Setting up Verlet run ...
  Unit style  : metal
  Current step: 0
  Time step   : 0.001
Step Temp E_pair E_mol TotEng Press Volume
0          300   -2874540.3            0   -2843030.4     2930.439     10133330
Loop time of 126.982 on 512 procs for 10000 steps with 812572 atoms

unfix 1

fix            2 all nvt temp 300.0 300.0 0.1

run      10000
Setting up Verlet run ...
  Unit style  : metal
  Current step: 10000
  Time step   : 0.001
Step Temp E_pair E_mol TotEng Press
10000    300.08647   -2842437.7            0   -2810918.7    8.4725849
Loop time of 127.463 on 512 procs for 10000 steps with 812572 atoms

reset_timestep 0
unfix    2
#---------------------- DEFINE Laser GERION and GROUP ----------------
region       R1  block -75  75  INF  INF  INF  5  units box
group        G1 region R1
259407 atoms in group G1
group        G2 subtract all G1
553165 atoms in group G2

#define     temperature/pressure calculation  group
variable    x1atom atom "x>=0  &&  x<4 &&  z>-40 && z<1"     ##NEW!!!!!!!!!!!!
variable    x2atom atom "x>=-234.98  &&  x<-230.98 &&  z>-40 && z<1"
variable    x3atom atom "x>=0  &&  x<4 &&  z>-20 && z<1"
variable    x4atom atom "x>=-234.98  &&  x<-230.98 &&  z>-20 && z<1"
variable    x5atom atom "x>=196  &&  x<200 &&  z>-40 && z<1"

group       x1atom variable x1atom
405 atoms in group x1atom
group       x2atom variable x2atom
276 atoms in group x2atom
group       x3atom variable x3atom
211 atoms in group x3atom
group       x4atom variable x4atom
144 atoms in group x4atom
group       x5atom variable x5atom
412 atoms in group x5atom

compute      COM1x x1atom com
compute      COM2x x2atom com
compute      COM3x x3atom com
compute      COM4x x4atom com
compute      COM5x x5atom com

compute      COMall all com

#Temperature profile
#variable      Tprofile atom 300*(1+(step/5000)*2.5*exp(z/40))
#variable tmp equal "lz"
variable      Tprofile atom  300+600*(step/5000)*exp(z/40)*exp(-x*x/1289)

# ------------------------- SETTINGS ---------------------------------
thermo          100
thermo_style    custom step lx pxx pyy pzz temp c_COM1x[1] c_COM1x[2] c_COM1x[3] c_COM2x[1] c_COM2x[2] c_COM2x[3] c_COM3x[1] c_COM3x[2] c_COM3x[3] c_COM4x[1] c_COM4x[2] c_COM4x[3]  c_COM5x[1] c_COM5x[2] c_COM5x[3] c_COMall[1] c_COMall[2] c_COMall[3]

timestep       0.002

compute dispall all displace/atom
# ---------------- Run Laser Material Interaction --------------------
#dump          1 all custom 1000 dump/z1dump.atom id type x y z c_dispall[1]  c_dispall[2]  c_dispall[3] c_dispall[4]
#dump          2 all cfg 100 cfg/*.cfg mass type xs ys zs
#dump_modify   2 element Al

#relax for 2 PS
#fix           1 all nvt temp 300.0 300.0 0.1
#run  1000
#unfix         1

fix           1  all nve
fix           3temp  all  langevin  v_Tprofile  0  0.1  378411   #TEST ALL
run           5000
Setting up Verlet run ...
  Unit style  : metal
  Current step: 0
  Time step   : 0.002
Step Lx Pxx Pyy Pzz Temp COM1x[1] COM1x[2] COM1x[3] COM2x[1] COM2x[2] COM2x[3] COM3x[1] COM3x[2] COM3x[3] COM4x[1] COM4x[2] COM4x[3] COM5x[1] COM5x[2] COM5x[3] COMall[1 COMall[2 COMall[3
0    472.04389   -447.38541   -442.02988   -490.62519    300.11669    1.9516696  -0.88957123   -19.338053   -233.18548   -1.0594477   -19.300389    1.9406005  -0.91339796   -9.3896509    -233.1708   -1.0784429   -9.2927188    197.99909   -1.0511195    -19.34285  -0.90817889  -0.90780352   -469.90328
Averages over the last 26 of 51 rows, steps 2500 to 5000:
Lx Pxx Pyy Pzz Temp COM1x[1] COM1x[2] COM1x[3] COM2x[1] COM2x[2] COM2x[3] COM3x[1] COM3x[2] COM3x[3] COM4x[1] COM4x[2] COM4x[3] COM5x[1] COM5x[2] COM5x[3] COMall[1 COMall[2 COMall[3
472.044 -322.6 -313.954 -394.752 302.772 1.94772 -0.838917 -19.2665 -233.212 -1.01704 -19.2921 1.93801 -0.868766 -9.23838 -233.21 -1.03868 -9.28548 198.001 -0.98303 -19.368 -0.909805 -0.907472 -469.904
Loop time of 65.49 on 512 procs for 5000 steps with 812572 atoms

variable  com1_x equal "c_COM1x[1]"
variable  com1_y equal "c_COM1x[2]"
variable  com1_z equal "c_COM1x[3]"
variable  com2_x equal "c_COM2x[1]"
variable  com2_y equal "c_COM2x[2]"
variable  com2_z equal "c_COM2x[3]"
variable  com3_x equal "c_COM3x[1]"
variable  com3_y equal "c_COM3x[2]"
variable  com3_z equal "c_COM3x[3]"
variable  com4_x equal "c_COM4x[1]"
variable  com4_y equal "c_COM4x[2]"
variable  com4_z equal "c_COM4x[3]"
variable  com5_x equal "c_COM5x[1]"
variable  com5_y equal "c_COM5x[2]"
variable  com5_z equal "c_COM5x[3]"
variable  comall_x equal "c_COMall[1]"
variable  comall_y equal "c_COMall[2]"
variable  comall_z equal "c_COMall[3]"

#-------------------------- Wave Propagation -------------------------
unfix        3temp
run          1000000
Setting up Verlet run ...
  Unit style  : metal
  Current step: 5000
  Time step   : 0.002
Step Lx Pxx Pyy Pzz Temp COM1x[1] COM1x[2] COM1x[3] COM2x[1] COM2x[2] COM2x[3] COM3x[1] COM3x[2] COM3x[3] COM4x[1] COM4x[2] COM4x[3] COM5x[1] COM5x[2] COM5x[3] COMall[1 COMall[2 COMall[3
5000    472.04389   -227.47892   -230.83842   -259.86285    304.43071    1.9700253  -0.83649368   -19.248321   -233.21352  -0.99688796   -19.322548    1.9509188  -0.91351928   -9.1880411   -233.20318   -1.0091799   -9.3044909    198.00855  -0.96977249   -19.397745  -0.90898137  -0.90923671   -469.90708
Averages over the last 5001 of 10001 rows, steps 505000 to 1005000:
Lx Pxx Pyy Pzz Temp COM1x[1] COM1x[2] COM1x[3] COM2x[1] COM2x[2] COM2x[3] COM3x[1] COM3x[2] COM3x[3] COM4x[1] COM4x[2] COM4x[3] COM5x[1] COM5x[2] COM5x[3] COMall[1 COMall[2 COMall[3
472.044 -6.16691 2.4683 -3.92411 304.46 4.82419 1.8925 -17.5255 -230.324 1.87748 -17.4235 4.83586 1.86398 -7.5647 -230.324 1.87747 -7.43163 200.863 1.89035 -17.5066 2.06743 1.87663 -467.983
Loop time of 12167.7 on 512 procs for 1000000 steps with 812572 atoms
