fission-0222
fission-0222
fission-0222
fission-0222
fission-0222
fission-0222
fission-0222
fission-0222
fission-0222
fission-0222
fission-0222
fission-0222
fission-0222
fission-0222
fission-0222
fission-0222
fission-0222
fission-0222
fission-0222
fission-0222
fission-0222
fission-0222
fission-0222
fission-0222
fission-0222
fission-0222
fission-0222
fission-0222
fission-0222
fission-0222
fission-0222
fission-0222
fission-0224
fission-0224
fission-0224
fission-0224
fission-0224
fission-0224
fission-0224
fission-0224
fission-0224
fission-0224
fission-0224
fission-0224
fission-0224
fission-0224
fission-0224
fission-0224
fission-0224
fission-0224
fission-0224
fission-0224
fission-0224
fission-0224
fission-0224
fission-0224
fission-0224
fission-0224
fission-0224
fission-0224
fission-0224
fission-0224
fission-0224
fission-0224
fission-0278
fission-0278
fission-0278
fission-0278
fission-0278
fission-0278
fission-0278
fission-0278
fission-0278
fission-0278
fission-0278
fission-0278
fission-0278
fission-0278
fission-0278
fission-0278
fission-0278
fission-0278
fission-0278
fission-0278
fission-0278
fission-0278
fission-0278
fission-0278
fission-0278
fission-0278
fission-0278
fission-0278
fission-0278
fission-0278
fission-0278
fission-0278
fission-0158
fission-0158
fission-0158
fission-0158
fission-0158
fission-0158
fission-0158
fission-0158
fission-0158
fission-0158
fission-0158
fission-0158
fission-0158
fission-0158
fission-0158
fission-0158
fission-0158
fission-0158
fission-0158
fission-0158
fission-0158
fission-0158
fission-0158
fission-0158
fission-0158
fission-0158
fission-0158
fission-0158
fission-0158
fission-0158
fission-0158
fission-0158
fission-0085
fission-0085
fission-0085
fission-0085
fission-0085
fission-0085
fission-0085
fission-0085
fission-0085
fission-0085
fission-0085
fission-0085
fission-0085
fission-0085
fission-0085
fission-0085
fission-0085
fission-0085
fission-0085
fission-0085
fission-0085
fission-0085
fission-0085
fission-0085
fission-0085
fission-0085
fission-0085
fission-0085
fission-0085
fission-0085
fission-0085
fission-0085
fission-0145
fission-0145
fission-0145
fission-0145
fission-0145
fission-0145
fission-0145
fission-0145
fission-0145
fission-0145
fission-0145
fission-0145
fission-0145
fission-0145
fission-0145
fission-0145
fission-0145
fission-0145
fission-0145
fission-0145
fission-0145
fission-0145
fission-0145
fission-0145
fission-0145
fission-0145
fission-0145
fission-0145
fission-0145
fission-0145
fission-0145
fission-0145
fission-0244
fission-0244
fission-0244
fission-0244
fission-0244
fission-0244
fission-0244
fission-0244
fission-0244
fission-0244
fission-0244
fission-0244
fission-0244
fission-0244
fission-0244
fission-0244
fission-0244
fission-0244
fission-0244
fission-0244
fission-0244
fission-0244
fission-0244
fission-0244
fission-0244
fission-0244
fission-0244
fission-0244
fission-0244
fission-0244
fission-0244
fission-0244
fission-0107
fission-0107
fission-0107
fission-0107
fission-0107
fission-0107
fission-0107
fission-0107
fission-0107
fission-0107
fission-0107
fission-0107
fission-0107
fission-0107
fission-0107
fission-0107
fission-0107
fission-0107
fission-0107
fission-0107
fission-0107
fission-0107
fission-0107
fission-0107
fission-0107
fission-0107
fission-0107
fission-0107
fission-0107
fission-0107
fission-0107
fission-0107
fission-0269
fission-0269
fission-0269
fission-0269
fission-0269
fission-0269
fission-0269
fission-0269
fission-0269
fission-0269
fission-0269
fission-0269
fission-0269
fission-0269
fission-0269
fission-0269
fission-0269
fission-0269
fission-0269
fission-0269
fission-0269
fission-0269
fission-0269
fission-0269
fission-0269
fission-0269
fission-0269
fission-0269
fission-0269
fission-0269
fission-0269
fission-0269
fission-0225
fission-0225
fission-0225
fission-0225
fission-0225
fission-0225
fission-0225
fission-0225
fission-0225
fission-0225
fission-0225
fission-0225
fission-0225
fission-0225
fission-0225
fission-0225
fission-0225
fission-0225
fission-0225
fission-0225
fission-0225
fission-0225
fission-0225
fission-0225
fission-0225
fission-0225
fission-0225
fission-0225
fission-0225
fission-0225
fission-0225
fission-0225
fission-0229
fission-0229
fission-0229
fission-0229
fission-0229
fission-0229
fission-0229
fission-0229
fission-0229
fission-0229
fission-0229
fission-0229
fission-0229
fission-0229
fission-0229
fission-0229
fission-0229
fission-0229
fission-0229
fission-0229
fission-0229
fission-0229
fission-0229
fission-0229
fission-0229
fission-0229
fission-0229
fission-0229
fission-0229
fission-0229
fission-0229
fission-0229
fission-0231
fission-0231
fission-0231
fission-0231
fission-0231
fission-0231
fission-0231
fission-0231
fission-0231
fission-0231
fission-0231
fission-0231
fission-0231
fission-0231
fission-0231
fission-0231
fission-0231
fission-0231
fission-0231
fission-0231
fission-0231
fission-0231
fission-0231
fission-0231
fission-0231
fission-0231
fission-0231
fission-0231
fission-0231
fission-0231
fission-0231
fission-0231
fission-0307
fission-0307
fission-0307
fission-0307
fission-0307
fission-0307
fission-0307
fission-0307
fission-0307
fission-0307
fission-0307
fission-0307
fission-0307
fission-0307
fission-0307
fission-0307
fission-0307
fission-0307
fission-0307
fission-0307
fission-0307
fission-0307
fission-0307
fission-0307
fission-0307
fission-0307
fission-0307
fission-0307
fission-0307
fission-0307
fission-0307
fission-0307
fission-0304
fission-0304
fission-0304
fission-0304
fission-0304
fission-0304
fission-0304
fission-0304
fission-0304
fission-0304
fission-0304
fission-0304
fission-0304
fission-0304
fission-0304
fission-0304
fission-0304
fission-0304
fission-0304
fission-0304
fission-0304
fission-0304
fission-0304
fission-0304
fission-0304
fission-0304
fission-0304
fission-0304
fission-0304
fission-0304
fission-0304
fission-0304
fission-0305
fission-0305
fission-0305
fission-0305
fission-0305
fission-0305
fission-0305
fission-0305
fission-0305
fission-0305
fission-0305
fission-0305
fission-0305
fission-0305
fission-0305
fission-0305
fission-0305
fission-0305
fission-0305
fission-0305
fission-0305
fission-0305
fission-0305
fission-0305
fission-0305
fission-0305
fission-0305
fission-0305
fission-0305
fission-0305
fission-0305
fission-0305
fission-0356
fission-0356
fission-0356
fission-0356
fission-0356
fission-0356
fission-0356
fission-0356
fission-0356
fission-0356
fission-0356
fission-0356
fission-0356
fission-0356
fission-0356
fission-0356
fission-0356
fission-0356
fission-0356
fission-0356
fission-0356
fission-0356
fission-0356
fission-0356
fission-0356
fission-0356
fission-0356
fission-0356
fission-0356
fission-0356
fission-0356
fission-0356

The following PBS extra args (PBS_EXTRA_ARGS) will be used: -P ldrd
The following lammps extra args (LAMMPS_EXTRA_ARGS) will be used:
LAMMPS (16 Feb 2016)
#log		log.c
units           metal
dimension       3
boundary        p p p
atom_style      atomic
shell         mkdir  cfg
shell         mkdir  dump

# ----------------------- ATOM DEFINITION & Force Field -------------
lattice         fcc 3.615 #origin 0.0 0.0 0.0 orient x 1 -1 0 orient y 1 1 -2 orient z 1 1 1
Lattice spacing in x,y,z = 3.615 3.615 3.615
variable        Lx equal 65
variable        Ly equal 3
variable        Lz equal 260
variable        boxLZ equal 270
region          SYSTEM block -65 65 -3 3 -260 0 units lattice
region          BOX block -65 65 -3 3 -270 5 units lattice
create_box      1 BOX
Created orthogonal box = (-234.975 -10.845 -976.05) to (234.975 10.845 18.075)
create_atoms    1 region SYSTEM
Created 812760 atoms

delete_atoms     porosity BOX 0.005 4352
Deleted 4100 atoms, new total = 808660

#---------------------------------------------------------------------

pair_style      eam/alloy
pair_coeff  	  * * Cu01.eam.alloy Cu

#----------------------------------------------------------------------
velocity       all create 300.0 22183 mom yes rot yes dist gaussian
fix             1 all npt temp 300 300 0.1 iso 0.0 0.0 2
run      10000
  1 neighbor list requests
  update every 1 steps, delay 10 steps, check yes
Setting up Verlet run ...
  Unit style  : metal
  Current step: 0
  Time step   : 0.001
Step Temp E_pair E_mol TotEng Press Volume
0          300   -2855584.6            0   -2824226.3    1452.2432     10133330
Loop time of 123.191 on 512 procs for 10000 steps with 808660 atoms

unfix 1

fix            2 all nvt temp 300.0 300.0 0.1

run      10000
Setting up Verlet run ...
  Unit style  : metal
  Current step: 10000
  Time step   : 0.001
Step Temp E_pair E_mol TotEng Press
10000    299.60768   -2823733.5            0   -2792416.3   -6.8326652
Loop time of 120.571 on 512 procs for 10000 steps with 808660 atoms

reset_timestep 0
unfix    2
#---------------------- DEFINE Laser GERION and GROUP ----------------
region       R1  block -75  75  INF  INF  INF  5  units box
group        G1 region R1
258178 atoms in group G1
group        G2 subtract all G1
550482 atoms in group G2

#define     temperature/pressure calculation  group
variable    x1atom atom "x>=0  &&  x<4 &&  z>-40 && z<1"     ##NEW!!!!!!!!!!!!
variable    x2atom atom "x>=-234.98  &&  x<-230.98 &&  z>-40 && z<1"
variable    x3atom atom "x>=0  &&  x<4 &&  z>-20 && z<1"
variable    x4atom atom "x>=-234.98  &&  x<-230.98 &&  z>-20 && z<1"
variable    x5atom atom "x>=196  &&  x<200 &&  z>-40 && z<1"

group       x1atom variable x1atom
358 atoms in group x1atom
group       x2atom variable x2atom
276 atoms in group x2atom
group       x3atom variable x3atom
188 atoms in group x3atom
group       x4atom variable x4atom
144 atoms in group x4atom
group       x5atom variable x5atom
336 atoms in group x5atom

compute      COM1x x1atom com
compute      COM2x x2atom com
compute      COM3x x3atom com
compute      COM4x x4atom com
compute      COM5x x5atom com

compute      COMall all com

#Temperature profile
#variable      Tprofile atom 300*(1+(step/5000)*2.5*exp(z/40))
#variable tmp equal "lz"
variable      Tprofile atom  300+600*(step/5000)*exp(z/40)*exp(-x*x/1289)

# ------------------------- SETTINGS ---------------------------------
thermo          100
thermo_style    custom step lx pxx pyy pzz temp c_COM1x[1] c_COM1x[2] c_COM1x[3] c_COM2x[1] c_COM2x[2] c_COM2x[3] c_COM3x[1] c_COM3x[2] c_COM3x[3] c_COM4x[1] c_COM4x[2] c_COM4x[3]  c_COM5x[1] c_COM5x[2] c_COM5x[3] c_COMall[1] c_COMall[2] c_COMall[3]

timestep       0.002

compute dispall all displace/atom
# ---------------- Run Laser Material Interaction --------------------
#dump          1 all custom 1000 dump/z1dump.atom id type x y z c_dispall[1]  c_dispall[2]  c_dispall[3] c_dispall[4]
#dump          2 all cfg 100 cfg/*.cfg mass type xs ys zs
#dump_modify   2 element Al

#relax for 2 PS
#fix           1 all nvt temp 300.0 300.0 0.1
#run  1000
#unfix         1

fix           1  all nve
fix           3temp  all  langevin  v_Tprofile  0  0.1  378411   #TEST ALL
run           5000
Setting up Verlet run ...
  Unit style  : metal
  Current step: 0
  Time step   : 0.002
Step Lx Pxx Pyy Pzz Temp COM1x[1] COM1x[2] COM1x[3] COM2x[1] COM2x[2] COM2x[3] COM3x[1] COM3x[2] COM3x[3] COM4x[1] COM4x[2] COM4x[3] COM5x[1] COM5x[2] COM5x[3] COMall[1 COMall[2 COMall[3
0    471.84341   -490.02647   -474.94841   -466.95003    299.83478    2.1224537  -0.94661292   -19.526862   -233.14164  -0.94616007   -19.632364    2.1119011  -0.77666699   -9.3447519   -233.12792  -0.96808737   -9.6452222    198.23297   -1.0300215    -19.60971  -0.89233269  -0.90707025   -469.93717
Averages over the last 26 of 51 rows, steps 2500 to 5000:
Lx Pxx Pyy Pzz Temp COM1x[1] COM1x[2] COM1x[3] COM2x[1] COM2x[2] COM2x[3] COM3x[1] COM3x[2] COM3x[3] COM4x[1] COM4x[2] COM4x[3] COM5x[1] COM5x[2] COM5x[3] COMall[1 COMall[2 COMall[3
471.843 -340.899 -338.792 -339.859 302.688 2.1029 -0.944012 -19.4523 -233.156 -0.895765 -19.6091 2.08419 -0.783347 -9.17741 -233.164 -0.898688 -9.63244 198.236 -1.00134 -19.6128 -0.894011 -0.906761 -469.938
Loop time of 64.5403 on 512 procs for 5000 steps with 808660 atoms

variable  com1_x equal "c_COM1x[1]"
variable  com1_y equal "c_COM1x[2]"
variable  com1_z equal "c_COM1x[3]"
variable  com2_x equal "c_COM2x[1]"
variable  com2_y equal "c_COM2x[2]"
variable  com2_z equal "c_COM2x[3]"
variable  com3_x equal "c_COM3x[1]"
variable  com3_y equal "c_COM3x[2]"
variable  com3_z equal "c_COM3x[3]"
variable  com4_x equal "c_COM4x[1]"
variable  com4_y equal "c_COM4x[2]"
variable  com4_z equal "c_COM4x[3]"
variable  com5_x equal "c_COM5x[1]"
variable  com5_y equal "c_COM5x[2]"
variable  com5_z equal "c_COM5x[3]"
variable  comall_x equal "c_COMall[1]"
variable  comall_y equal "c_COMall[2]"
variable  comall_z equal "c_COMall[3]"

#-------------------------- Wave Propagation -------------------------
unfix        3temp
run          1000000
Setting up Verlet run ...
  Unit style  : metal
  Current step: 5000
  Time step   : 0.002
Step Lx Pxx Pyy Pzz Temp COM1x[1] COM1x[2] COM1x[3] COM2x[1] COM2x[2] COM2x[3] COM3x[1] COM3x[2] COM3x[3] COM4x[1] COM4x[2] COM4x[3] COM5x[1] COM5x[2] COM5x[3] COMall[1 COMall[2 COMall[3
5000    471.84341   -287.58456   -286.12443   -270.85785    303.16266    2.1206464   -0.9401604   -19.464675   -233.14917  -0.90473105   -19.618319    2.1257472  -0.83741229   -9.2215035   -233.16316  -0.90937149   -9.6431404    198.22797   -1.0229674   -19.612907   -0.8934694  -0.90841475   -469.94086
Averages over the last 338 of 675 rows, steps 38700 to 72400:
Lx Pxx Pyy Pzz Temp COM1x[1] COM1x[2] COM1x[3] COM2x[1] COM2x[2] COM2x[3] COM3x[1] COM3x[2] COM3x[3] COM4x[1] COM4x[2] COM4x[3] COM5x[1] COM5x[2] COM5x[3] COMall[1 COMall[2 COMall[3
471.843 -108.772 -99.8718 -33.4833 303.651 2.49768 -0.846969 -19.832 -232.771 -0.811931 -19.8391 2.48027 -0.686428 -9.62404 -232.769 -0.81198 -9.8528 198.65 -0.929344 -19.7914 -0.479263 -0.810463 -470.182
[0->96] send desc error, wc_opcode=1
[0->96] wc.status=12, wc.wr_id=0x1375c518, wc.opcode=1, vbuf->phead->type=2 = MPIDI_CH3_PKT_FAST_EAGER_SEND
[fission-0231:mpi_rank_352][MPIDI_CH3I_MRAILI_Cq_poll] src/mpid/ch3/channels/mrail/src/gen2/ibv_channel_manager.c:586: [] Got completion with error 12, vendor code=0x81, dest rank=96
: No such file or directory (2)

===================================================================================
=   BAD TERMINATION OF ONE OF YOUR APPLICATION PROCESSES
=   EXIT CODE: 252
=   CLEANING UP REMAINING PROCESSES
=   YOU CAN IGNORE THE BELOW CLEANUP MESSAGES
===================================================================================
[proxy:0:0@fission-0222] HYD_pmcd_pmip_control_cmd_cb (./pm/pmiserv/pmip_cb.c:913): assert (!closed) failed
[proxy:0:0@fission-0222] HYDT_dmxu_poll_wait_for_event (./tools/demux/demux_poll.c:77): callback returned error status
[proxy:0:0@fission-0222] main (./pm/pmiserv/pmip.c:206): demux engine error waiting for event
[proxy:0:13@fission-0304] HYD_pmcd_pmip_control_cmd_cb (./pm/pmiserv/pmip_cb.c:913): assert (!closed) failed
[proxy:0:13@fission-0304] HYDT_dmxu_poll_wait_for_event (./tools/demux/demux_poll.c:77): callback returned error status
[proxy:0:13@fission-0304] main (./pm/pmiserv/pmip.c:206): demux engine error waiting for event
[proxy:0:5@fission-0145] HYD_pmcd_pmip_control_cmd_cb (./pm/pmiserv/pmip_cb.c:913): assert (!closed) failed
[proxy:0:5@fission-0145] HYDT_dmxu_poll_wait_for_event (./tools/demux/demux_poll.c:77): callback returned error status
[proxy:0:5@fission-0145] main (./pm/pmiserv/pmip.c:206): demux engine error waiting for event
[proxy:0:14@fission-0305] HYD_pmcd_pmip_control_cmd_cb (./pm/pmiserv/pmip_cb.c:913): assert (!closed) failed
[proxy:0:14@fission-0305] HYDT_dmxu_poll_wait_for_event (./tools/demux/demux_poll.c:77): callback returned error status
[proxy:0:14@fission-0305] main (./pm/pmiserv/pmip.c:206): demux engine error waiting for event
[mpiexec@fission-0222] HYDT_bscu_wait_for_completion (./tools/bootstrap/utils/bscu_wait.c:76): one of the processes terminated badly; aborting
[mpiexec@fission-0222] HYDT_bsci_wait_for_completion (./tools/bootstrap/src/bsci_wait.c:23): launcher returned error waiting for completion
[mpiexec@fission-0222] HYD_pmci_wait_for_completion (./pm/pmiserv/pmiserv_pmci.c:217): launcher returned error waiting for completion
[mpiexec@fission-0222] main (./ui/mpich/mpiexec.c:331): process manager error waiting for completion
