fission-0090
fission-0090
fission-0090
fission-0090
fission-0090
fission-0090
fission-0090
fission-0090
fission-0090
fission-0090
fission-0090
fission-0090
fission-0090
fission-0090
fission-0090
fission-0090
fission-0090
fission-0090
fission-0090
fission-0090
fission-0090
fission-0090
fission-0090
fission-0090
fission-0090
fission-0090
fission-0090
fission-0090
fission-0090
fission-0090
fission-0090
fission-0090
fission-0280
fission-0280
fission-0280
fission-0280
fission-0280
fission-0280
fission-0280
fission-0280
fission-0280
fission-0280
fission-0280
fission-0280
fission-0280
fission-0280
fission-0280
fission-0280
fission-0280
fission-0280
fission-0280
fission-0280
fission-0280
fission-0280
fission-0280
fission-0280
fission-0280
fission-0280
fission-0280
fission-0280
fission-0280
fission-0280
fission-0280
fission-0280
fission-0075
fission-0075
fission-0075
fission-0075
fission-0075
fission-0075
fission-0075
fission-0075
fission-0075
fission-0075
fission-0075
fission-0075
fission-0075
fission-0075
fission-0075
fission-0075
fission-0075
fission-0075
fission-0075
fission-0075
fission-0075
fission-0075
fission-0075
fission-0075
fission-0075
fission-0075
fission-0075
fission-0075
fission-0075
fission-0075
fission-0075
fission-0075
fission-0150
fission-0150
fission-0150
fission-0150
fission-0150
fission-0150
fission-0150
fission-0150
fission-0150
fission-0150
fission-0150
fission-0150
fission-0150
fission-0150
fission-0150
fission-0150
fission-0150
fission-0150
fission-0150
fission-0150
fission-0150
fission-0150
fission-0150
fission-0150
fission-0150
fission-0150
fission-0150
fission-0150
fission-0150
fission-0150
fission-0150
fission-0150
fission-0202
fission-0202
fission-0202
fission-0202
fission-0202
fission-0202
fission-0202
fission-0202
fission-0202
fission-0202
fission-0202
fission-0202
fission-0202
fission-0202
fission-0202
fission-0202
fission-0202
fission-0202
fission-0202
fission-0202
fission-0202
fission-0202
fission-0202
fission-0202
fission-0202
fission-0202
fission-0202
fission-0202
fission-0202
fission-0202
fission-0202
fission-0202
fission-0029
fission-0029
fission-0029
fission-0029
fission-0029
fission-0029
fission-0029
fission-0029
fission-0029
fission-0029
fission-0029
fission-0029
fission-0029
fission-0029
fission-0029
fission-0029
fission-0029
fission-0029
fission-0029
fission-0029
fission-0029
fission-0029
fission-0029
fission-0029
fission-0029
fission-0029
fission-0029
fission-0029
fission-0029
fission-0029
fission-0029
fission-0029
fission-0051
fission-0051
fission-0051
fission-0051
fission-0051
fission-0051
fission-0051
fission-0051
fission-0051
fission-0051
fission-0051
fission-0051
fission-0051
fission-0051
fission-0051
fission-0051
fission-0051
fission-0051
fission-0051
fission-0051
fission-0051
fission-0051
fission-0051
fission-0051
fission-0051
fission-0051
fission-0051
fission-0051
fission-0051
fission-0051
fission-0051
fission-0051
fission-0177
fission-0177
fission-0177
fission-0177
fission-0177
fission-0177
fission-0177
fission-0177
fission-0177
fission-0177
fission-0177
fission-0177
fission-0177
fission-0177
fission-0177
fission-0177
fission-0177
fission-0177
fission-0177
fission-0177
fission-0177
fission-0177
fission-0177
fission-0177
fission-0177
fission-0177
fission-0177
fission-0177
fission-0177
fission-0177
fission-0177
fission-0177
fission-0292
fission-0292
fission-0292
fission-0292
fission-0292
fission-0292
fission-0292
fission-0292
fission-0292
fission-0292
fission-0292
fission-0292
fission-0292
fission-0292
fission-0292
fission-0292
fission-0292
fission-0292
fission-0292
fission-0292
fission-0292
fission-0292
fission-0292
fission-0292
fission-0292
fission-0292
fission-0292
fission-0292
fission-0292
fission-0292
fission-0292
fission-0292
fission-0184
fission-0184
fission-0184
fission-0184
fission-0184
fission-0184
fission-0184
fission-0184
fission-0184
fission-0184
fission-0184
fission-0184
fission-0184
fission-0184
fission-0184
fission-0184
fission-0184
fission-0184
fission-0184
fission-0184
fission-0184
fission-0184
fission-0184
fission-0184
fission-0184
fission-0184
fission-0184
fission-0184
fission-0184
fission-0184
fission-0184
fission-0184
fission-0281
fission-0281
fission-0281
fission-0281
fission-0281
fission-0281
fission-0281
fission-0281
fission-0281
fission-0281
fission-0281
fission-0281
fission-0281
fission-0281
fission-0281
fission-0281
fission-0281
fission-0281
fission-0281
fission-0281
fission-0281
fission-0281
fission-0281
fission-0281
fission-0281
fission-0281
fission-0281
fission-0281
fission-0281
fission-0281
fission-0281
fission-0281
fission-0243
fission-0243
fission-0243
fission-0243
fission-0243
fission-0243
fission-0243
fission-0243
fission-0243
fission-0243
fission-0243
fission-0243
fission-0243
fission-0243
fission-0243
fission-0243
fission-0243
fission-0243
fission-0243
fission-0243
fission-0243
fission-0243
fission-0243
fission-0243
fission-0243
fission-0243
fission-0243
fission-0243
fission-0243
fission-0243
fission-0243
fission-0243
fission-0259
fission-0259
fission-0259
fission-0259
fission-0259
fission-0259
fission-0259
fission-0259
fission-0259
fission-0259
fission-0259
fission-0259
fission-0259
fission-0259
fission-0259
fission-0259
fission-0259
fission-0259
fission-0259
fission-0259
fission-0259
fission-0259
fission-0259
fission-0259
fission-0259
fission-0259
fission-0259
fission-0259
fission-0259
fission-0259
fission-0259
fission-0259
fission-0207
fission-0207
fission-0207
fission-0207
fission-0207
fission-0207
fission-0207
fission-0207
fission-0207
fission-0207
fission-0207
fission-0207
fission-0207
fission-0207
fission-0207
fission-0207
fission-0207
fission-0207
fission-0207
fission-0207
fission-0207
fission-0207
fission-0207
fission-0207
fission-0207
fission-0207
fission-0207
fission-0207
fission-0207
fission-0207
fission-0207
fission-0207
fission-0036
fission-0036
fission-0036
fission-0036
fission-0036
fission-0036
fission-0036
fission-0036
fission-0036
fission-0036
fission-0036
fission-0036
fission-0036
fission-0036
fission-0036
fission-0036
fission-0036
fission-0036
fission-0036
fission-0036
fission-0036
fission-0036
fission-0036
fission-0036
fission-0036
fission-0036
fission-0036
fission-0036
fission-0036
fission-0036
fission-0036
fission-0036
fission-0268
fission-0268
fission-0268
fission-0268
fission-0268
fission-0268
fission-0268
fission-0268
fission-0268
fission-0268
fission-0268
fission-0268
fission-0268
fission-0268
fission-0268
fission-0268
fission-0268
fission-0268
fission-0268
fission-0268
fission-0268
fission-0268
fission-0268
fission-0268
fission-0268
fission-0268
fission-0268
fission-0268
fission-0268
fission-0268
fission-0268
fission-0268

The following PBS extra args (PBS_EXTRA_ARGS) will be used: -P ldrd
The following lammps extra args (LAMMPS_EXTRA_ARGS) will be used:
LAMMPS (16 Feb 2016)
#log		log.c
units           metal
dimension       3
boundary        p p p
atom_style      atomic
shell         mkdir  cfg
shell         mkdir  dump

# ----------------------- ATOM DEFINITION & Force Field -------------
lattice         fcc 3.615 #origin 0.0 0.0 0.0 orient x 1 -1 0 orient y 1 1 -2 orient z 1 1 1
Lattice spacing in x,y,z = 3.615 3.615 3.615
variable        Lx equal 65
variable        Ly equal 3
variable        Lz equal 260
variable        boxLZ equal 270
region          SYSTEM block -65 65 -3 3 -260 0 units lattice
region          BOX block -65 65 -3 3 -270 5 units lattice
create_box      1 BOX
Created orthogonal box = (-234.975 -10.845 -976.05) to (234.975 10.845 18.075)
create_atoms    1 region SYSTEM
Created 812760 atoms

delete_atoms     porosity BOX 0.005 15927
Deleted 4026 atoms, new total = 808734

#---------------------------------------------------------------------

pair_style      eam/alloy
pair_coeff  	  * * Cu01.eam.alloy Cu

#----------------------------------------------------------------------
velocity       all create 300.0 663 mom yes rot yes dist gaussian
fix             1 all npt temp 300 300 0.1 iso 0.0 0.0 2
run      10000
  1 neighbor list requests
  update every 1 steps, delay 10 steps, check yes
Setting up Verlet run ...
  Unit style  : metal
  Current step: 0
  Time step   : 0.001
Step Temp E_pair E_mol TotEng Press Volume
0          300   -2855949.6            0   -2824588.6    1482.6968     10133330
Loop time of 128.891 on 512 procs for 10000 steps with 808734 atoms

unfix 1

fix            2 all nvt temp 300.0 300.0 0.1

run      10000
Setting up Verlet run ...
  Unit style  : metal
  Current step: 10000
  Time step   : 0.001
Step Temp E_pair E_mol TotEng Press
10000    299.98461   -2824126.9            0   -2792767.4    13.530357
Loop time of 124.985 on 512 procs for 10000 steps with 808734 atoms

reset_timestep 0
unfix    2
#---------------------- DEFINE Laser GERION and GROUP ----------------
region       R1  block -75  75  INF  INF  INF  5  units box
group        G1 region R1
258249 atoms in group G1
group        G2 subtract all G1
550485 atoms in group G2

#define     temperature/pressure calculation  group
variable    x1atom atom "x>=0  &&  x<4 &&  z>-40 && z<1"     ##NEW!!!!!!!!!!!!
variable    x2atom atom "x>=-234.98  &&  x<-230.98 &&  z>-40 && z<1"
variable    x3atom atom "x>=0  &&  x<4 &&  z>-20 && z<1"
variable    x4atom atom "x>=-234.98  &&  x<-230.98 &&  z>-20 && z<1"
variable    x5atom atom "x>=196  &&  x<200 &&  z>-40 && z<1"

group       x1atom variable x1atom
372 atoms in group x1atom
group       x2atom variable x2atom
275 atoms in group x2atom
group       x3atom variable x3atom
201 atoms in group x3atom
group       x4atom variable x4atom
143 atoms in group x4atom
group       x5atom variable x5atom
384 atoms in group x5atom

compute      COM1x x1atom com
compute      COM2x x2atom com
compute      COM3x x3atom com
compute      COM4x x4atom com
compute      COM5x x5atom com

compute      COMall all com

#Temperature profile
#variable      Tprofile atom 300*(1+(step/5000)*2.5*exp(z/40))
#variable tmp equal "lz"
variable      Tprofile atom  300+600*(step/5000)*exp(z/40)*exp(-x*x/1289)

# ------------------------- SETTINGS ---------------------------------
thermo          100
thermo_style    custom step lx pxx pyy pzz temp c_COM1x[1] c_COM1x[2] c_COM1x[3] c_COM2x[1] c_COM2x[2] c_COM2x[3] c_COM3x[1] c_COM3x[2] c_COM3x[3] c_COM4x[1] c_COM4x[2] c_COM4x[3]  c_COM5x[1] c_COM5x[2] c_COM5x[3] c_COMall[1] c_COMall[2] c_COMall[3]

timestep       0.002

compute dispall all displace/atom
# ---------------- Run Laser Material Interaction --------------------
#dump          1 all custom 1000 dump/z1dump.atom id type x y z c_dispall[1]  c_dispall[2]  c_dispall[3] c_dispall[4]
#dump          2 all cfg 100 cfg/*.cfg mass type xs ys zs
#dump_modify   2 element Al

#relax for 2 PS
#fix           1 all nvt temp 300.0 300.0 0.1
#run  1000
#unfix         1

fix           1  all nve
fix           3temp  all  langevin  v_Tprofile  0  0.1  378411   #TEST ALL
run           5000
Setting up Verlet run ...
  Unit style  : metal
  Current step: 0
  Time step   : 0.002
Step Lx Pxx Pyy Pzz Temp COM1x[1] COM1x[2] COM1x[3] COM2x[1] COM2x[2] COM2x[3] COM3x[1] COM3x[2] COM3x[3] COM4x[1] COM4x[2] COM4x[3] COM5x[1] COM5x[2] COM5x[3] COMall[1 COMall[2 COMall[3
0    471.81668   -520.55167   -463.77175   -538.40151    300.65981    2.0789181   -1.1462225   -18.888942   -233.19206  -0.87972013   -19.444549    2.0135988   -1.2542051   -9.4426689   -233.18679  -0.87685979   -9.3950809    198.00317  -0.87682612   -19.581406  -0.91255673  -0.90680574   -469.89778
Averages over the last 26 of 51 rows, steps 2500 to 5000:
Lx Pxx Pyy Pzz Temp COM1x[1] COM1x[2] COM1x[3] COM2x[1] COM2x[2] COM2x[3] COM3x[1] COM3x[2] COM3x[3] COM4x[1] COM4x[2] COM4x[3] COM5x[1] COM5x[2] COM5x[3] COMall[1 COMall[2 COMall[3
471.817 -362.925 -353.051 -450.792 302.741 2.07865 -1.09107 -18.7982 -233.177 -0.921368 -19.483 1.99282 -1.2273 -9.28422 -233.189 -0.926117 -9.42103 197.97 -0.851935 -19.593 -0.914255 -0.906529 -469.899
Loop time of 66.8019 on 512 procs for 5000 steps with 808734 atoms

variable  com1_x equal "c_COM1x[1]"
variable  com1_y equal "c_COM1x[2]"
variable  com1_z equal "c_COM1x[3]"
variable  com2_x equal "c_COM2x[1]"
variable  com2_y equal "c_COM2x[2]"
variable  com2_z equal "c_COM2x[3]"
variable  com3_x equal "c_COM3x[1]"
variable  com3_y equal "c_COM3x[2]"
variable  com3_z equal "c_COM3x[3]"
variable  com4_x equal "c_COM4x[1]"
variable  com4_y equal "c_COM4x[2]"
variable  com4_z equal "c_COM4x[3]"
variable  com5_x equal "c_COM5x[1]"
variable  com5_y equal "c_COM5x[2]"
variable  com5_z equal "c_COM5x[3]"
variable  comall_x equal "c_COMall[1]"
variable  comall_y equal "c_COMall[2]"
variable  comall_z equal "c_COMall[3]"

#-------------------------- Wave Propagation -------------------------
unfix        3temp
run          1000000
Setting up Verlet run ...
  Unit style  : metal
  Current step: 5000
  Time step   : 0.002
Step Lx Pxx Pyy Pzz Temp COM1x[1] COM1x[2] COM1x[3] COM2x[1] COM2x[2] COM2x[3] COM3x[1] COM3x[2] COM3x[3] COM4x[1] COM4x[2] COM4x[3] COM5x[1] COM5x[2] COM5x[3] COMall[1 COMall[2 COMall[3
5000    471.81668   -276.20468   -233.46683   -357.99648    303.60244    2.1116131   -1.0973734   -18.776354   -233.16776  -0.91732816   -19.485317    2.0183998   -1.2449531    -9.230451   -233.17496  -0.92006633   -9.4297077    197.96011  -0.85127296   -19.605967  -0.91389266  -0.90828869   -469.90151
Averages over the last 5001 of 10001 rows, steps 505000 to 1005000:
Lx Pxx Pyy Pzz Temp COM1x[1] COM1x[2] COM1x[3] COM2x[1] COM2x[2] COM2x[3] COM3x[1] COM3x[2] COM3x[3] COM4x[1] COM4x[2] COM4x[3] COM5x[1] COM5x[2] COM5x[3] COMall[1 COMall[2 COMall[3
471.817 -10.4921 1.49616 -3.14112 304.069 7.73552 1.01202 -21.6119 -227.457 1.20996 -22.1584 7.6504 0.85944 -12.1483 -227.46 1.21295 -12.1071 203.64 1.2639 -22.2291 4.81999 1.20784 -472.49
Loop time of 12347.8 on 512 procs for 1000000 steps with 808734 atoms
