fission-0311
fission-0311
fission-0311
fission-0311
fission-0311
fission-0311
fission-0311
fission-0311
fission-0311
fission-0311
fission-0311
fission-0311
fission-0311
fission-0311
fission-0311
fission-0311
fission-0311
fission-0311
fission-0311
fission-0311
fission-0311
fission-0311
fission-0311
fission-0311
fission-0311
fission-0311
fission-0311
fission-0311
fission-0311
fission-0311
fission-0311
fission-0311
fission-0297
fission-0297
fission-0297
fission-0297
fission-0297
fission-0297
fission-0297
fission-0297
fission-0297
fission-0297
fission-0297
fission-0297
fission-0297
fission-0297
fission-0297
fission-0297
fission-0297
fission-0297
fission-0297
fission-0297
fission-0297
fission-0297
fission-0297
fission-0297
fission-0297
fission-0297
fission-0297
fission-0297
fission-0297
fission-0297
fission-0297
fission-0297
fission-0298
fission-0298
fission-0298
fission-0298
fission-0298
fission-0298
fission-0298
fission-0298
fission-0298
fission-0298
fission-0298
fission-0298
fission-0298
fission-0298
fission-0298
fission-0298
fission-0298
fission-0298
fission-0298
fission-0298
fission-0298
fission-0298
fission-0298
fission-0298
fission-0298
fission-0298
fission-0298
fission-0298
fission-0298
fission-0298
fission-0298
fission-0298
fission-0323
fission-0323
fission-0323
fission-0323
fission-0323
fission-0323
fission-0323
fission-0323
fission-0323
fission-0323
fission-0323
fission-0323
fission-0323
fission-0323
fission-0323
fission-0323
fission-0323
fission-0323
fission-0323
fission-0323
fission-0323
fission-0323
fission-0323
fission-0323
fission-0323
fission-0323
fission-0323
fission-0323
fission-0323
fission-0323
fission-0323
fission-0323
fission-0222
fission-0222
fission-0222
fission-0222
fission-0222
fission-0222
fission-0222
fission-0222
fission-0222
fission-0222
fission-0222
fission-0222
fission-0222
fission-0222
fission-0222
fission-0222
fission-0222
fission-0222
fission-0222
fission-0222
fission-0222
fission-0222
fission-0222
fission-0222
fission-0222
fission-0222
fission-0222
fission-0222
fission-0222
fission-0222
fission-0222
fission-0222
fission-0158
fission-0158
fission-0158
fission-0158
fission-0158
fission-0158
fission-0158
fission-0158
fission-0158
fission-0158
fission-0158
fission-0158
fission-0158
fission-0158
fission-0158
fission-0158
fission-0158
fission-0158
fission-0158
fission-0158
fission-0158
fission-0158
fission-0158
fission-0158
fission-0158
fission-0158
fission-0158
fission-0158
fission-0158
fission-0158
fission-0158
fission-0158
fission-0145
fission-0145
fission-0145
fission-0145
fission-0145
fission-0145
fission-0145
fission-0145
fission-0145
fission-0145
fission-0145
fission-0145
fission-0145
fission-0145
fission-0145
fission-0145
fission-0145
fission-0145
fission-0145
fission-0145
fission-0145
fission-0145
fission-0145
fission-0145
fission-0145
fission-0145
fission-0145
fission-0145
fission-0145
fission-0145
fission-0145
fission-0145
fission-0231
fission-0231
fission-0231
fission-0231
fission-0231
fission-0231
fission-0231
fission-0231
fission-0231
fission-0231
fission-0231
fission-0231
fission-0231
fission-0231
fission-0231
fission-0231
fission-0231
fission-0231
fission-0231
fission-0231
fission-0231
fission-0231
fission-0231
fission-0231
fission-0231
fission-0231
fission-0231
fission-0231
fission-0231
fission-0231
fission-0231
fission-0231
fission-0307
fission-0307
fission-0307
fission-0307
fission-0307
fission-0307
fission-0307
fission-0307
fission-0307
fission-0307
fission-0307
fission-0307
fission-0307
fission-0307
fission-0307
fission-0307
fission-0307
fission-0307
fission-0307
fission-0307
fission-0307
fission-0307
fission-0307
fission-0307
fission-0307
fission-0307
fission-0307
fission-0307
fission-0307
fission-0307
fission-0307
fission-0307
fission-0304
fission-0304
fission-0304
fission-0304
fission-0304
fission-0304
fission-0304
fission-0304
fission-0304
fission-0304
fission-0304
fission-0304
fission-0304
fission-0304
fission-0304
fission-0304
fission-0304
fission-0304
fission-0304
fission-0304
fission-0304
fission-0304
fission-0304
fission-0304
fission-0304
fission-0304
fission-0304
fission-0304
fission-0304
fission-0304
fission-0304
fission-0304
fission-0305
fission-0305
fission-0305
fission-0305
fission-0305
fission-0305
fission-0305
fission-0305
fission-0305
fission-0305
fission-0305
fission-0305
fission-0305
fission-0305
fission-0305
fission-0305
fission-0305
fission-0305
fission-0305
fission-0305
fission-0305
fission-0305
fission-0305
fission-0305
fission-0305
fission-0305
fission-0305
fission-0305
fission-0305
fission-0305
fission-0305
fission-0305
fission-0356
fission-0356
fission-0356
fission-0356
fission-0356
fission-0356
fission-0356
fission-0356
fission-0356
fission-0356
fission-0356
fission-0356
fission-0356
fission-0356
fission-0356
fission-0356
fission-0356
fission-0356
fission-0356
fission-0356
fission-0356
fission-0356
fission-0356
fission-0356
fission-0356
fission-0356
fission-0356
fission-0356
fission-0356
fission-0356
fission-0356
fission-0356
fission-0142
fission-0142
fission-0142
fission-0142
fission-0142
fission-0142
fission-0142
fission-0142
fission-0142
fission-0142
fission-0142
fission-0142
fission-0142
fission-0142
fission-0142
fission-0142
fission-0142
fission-0142
fission-0142
fission-0142
fission-0142
fission-0142
fission-0142
fission-0142
fission-0142
fission-0142
fission-0142
fission-0142
fission-0142
fission-0142
fission-0142
fission-0142
fission-0165
fission-0165
fission-0165
fission-0165
fission-0165
fission-0165
fission-0165
fission-0165
fission-0165
fission-0165
fission-0165
fission-0165
fission-0165
fission-0165
fission-0165
fission-0165
fission-0165
fission-0165
fission-0165
fission-0165
fission-0165
fission-0165
fission-0165
fission-0165
fission-0165
fission-0165
fission-0165
fission-0165
fission-0165
fission-0165
fission-0165
fission-0165
fission-0160
fission-0160
fission-0160
fission-0160
fission-0160
fission-0160
fission-0160
fission-0160
fission-0160
fission-0160
fission-0160
fission-0160
fission-0160
fission-0160
fission-0160
fission-0160
fission-0160
fission-0160
fission-0160
fission-0160
fission-0160
fission-0160
fission-0160
fission-0160
fission-0160
fission-0160
fission-0160
fission-0160
fission-0160
fission-0160
fission-0160
fission-0160
fission-0350
fission-0350
fission-0350
fission-0350
fission-0350
fission-0350
fission-0350
fission-0350
fission-0350
fission-0350
fission-0350
fission-0350
fission-0350
fission-0350
fission-0350
fission-0350
fission-0350
fission-0350
fission-0350
fission-0350
fission-0350
fission-0350
fission-0350
fission-0350
fission-0350
fission-0350
fission-0350
fission-0350
fission-0350
fission-0350
fission-0350
fission-0350

The following PBS extra args (PBS_EXTRA_ARGS) will be used: -P ldrd
The following lammps extra args (LAMMPS_EXTRA_ARGS) will be used:
LAMMPS (16 Feb 2016)
#log		log.c
units           metal
dimension       3
boundary        p p p
atom_style      atomic
shell         mkdir  cfg
shell         mkdir  dump

# ----------------------- ATOM DEFINITION & Force Field -------------
lattice         fcc 3.615 #origin 0.0 0.0 0.0 orient x 1 -1 0 orient y 1 1 -2 orient z 1 1 1
Lattice spacing in x,y,z = 3.615 3.615 3.615
variable        Lx equal 65
variable        Ly equal 3
variable        Lz equal 260
variable        boxLZ equal 270
region          SYSTEM block -65 65 -3 3 -260 0 units lattice
region          BOX block -65 65 -3 3 -270 5 units lattice
create_box      1 BOX
Created orthogonal box = (-234.975 -10.845 -976.05) to (234.975 10.845 18.075)
create_atoms    1 region SYSTEM
Created 812760 atoms

delete_atoms     porosity BOX 0.005 21417
Deleted 4054 atoms, new total = 808706

#---------------------------------------------------------------------

pair_style      eam/alloy
pair_coeff  	  * * Cu01.eam.alloy Cu

#----------------------------------------------------------------------
velocity       all create 300.0 1403 mom yes rot yes dist gaussian
fix             1 all npt temp 300 300 0.1 iso 0.0 0.0 2
run      10000
  1 neighbor list requests
  update every 1 steps, delay 10 steps, check yes
Setting up Verlet run ...
  Unit style  : metal
  Current step: 0
  Time step   : 0.001
Step Temp E_pair E_mol TotEng Press Volume
0          300   -2855808.9            0   -2824448.9    1469.4424     10133330
Loop time of 125.571 on 512 procs for 10000 steps with 808706 atoms

unfix 1

fix            2 all nvt temp 300.0 300.0 0.1

run      10000
Setting up Verlet run ...
  Unit style  : metal
  Current step: 10000
  Time step   : 0.001
Step Temp E_pair E_mol TotEng Press
10000    299.88713   -2824009.4            0   -2792661.2     9.698441
Loop time of 122.17 on 512 procs for 10000 steps with 808706 atoms

reset_timestep 0
unfix    2
#---------------------- DEFINE Laser GERION and GROUP ----------------
region       R1  block -75  75  INF  INF  INF  5  units box
group        G1 region R1
258189 atoms in group G1
group        G2 subtract all G1
550517 atoms in group G2

#define     temperature/pressure calculation  group
variable    x1atom atom "x>=0  &&  x<4 &&  z>-40 && z<1"     ##NEW!!!!!!!!!!!!
variable    x2atom atom "x>=-234.98  &&  x<-230.98 &&  z>-40 && z<1"
variable    x3atom atom "x>=0  &&  x<4 &&  z>-20 && z<1"
variable    x4atom atom "x>=-234.98  &&  x<-230.98 &&  z>-20 && z<1"
variable    x5atom atom "x>=196  &&  x<200 &&  z>-40 && z<1"

group       x1atom variable x1atom
295 atoms in group x1atom
group       x2atom variable x2atom
274 atoms in group x2atom
group       x3atom variable x3atom
155 atoms in group x3atom
group       x4atom variable x4atom
143 atoms in group x4atom
group       x5atom variable x5atom
363 atoms in group x5atom

compute      COM1x x1atom com
compute      COM2x x2atom com
compute      COM3x x3atom com
compute      COM4x x4atom com
compute      COM5x x5atom com

compute      COMall all com

#Temperature profile
#variable      Tprofile atom 300*(1+(step/5000)*2.5*exp(z/40))
#variable tmp equal "lz"
variable      Tprofile atom  300+600*(step/5000)*exp(z/40)*exp(-x*x/1289)

# ------------------------- SETTINGS ---------------------------------
thermo          100
thermo_style    custom step lx pxx pyy pzz temp c_COM1x[1] c_COM1x[2] c_COM1x[3] c_COM2x[1] c_COM2x[2] c_COM2x[3] c_COM3x[1] c_COM3x[2] c_COM3x[3] c_COM4x[1] c_COM4x[2] c_COM4x[3]  c_COM5x[1] c_COM5x[2] c_COM5x[3] c_COMall[1] c_COMall[2] c_COMall[3]

timestep       0.002

compute dispall all displace/atom
# ---------------- Run Laser Material Interaction --------------------
#dump          1 all custom 1000 dump/z1dump.atom id type x y z c_dispall[1]  c_dispall[2]  c_dispall[3] c_dispall[4]
#dump          2 all cfg 100 cfg/*.cfg mass type xs ys zs
#dump_modify   2 element Al

#relax for 2 PS
#fix           1 all nvt temp 300.0 300.0 0.1
#run  1000
#unfix         1

fix           1  all nve
fix           3temp  all  langevin  v_Tprofile  0  0.1  378411   #TEST ALL
run           5000
Setting up Verlet run ...
  Unit style  : metal
  Current step: 0
  Time step   : 0.002
Step Lx Pxx Pyy Pzz Temp COM1x[1] COM1x[2] COM1x[3] COM2x[1] COM2x[2] COM2x[3] COM3x[1] COM3x[2] COM3x[3] COM4x[1] COM4x[2] COM4x[3] COM5x[1] COM5x[2] COM5x[3] COMall[1 COMall[2 COMall[3
0    471.81806   -518.39527   -488.44837    -585.7778    299.83339    2.4530583   -0.7662183   -19.504862   -233.11758  -0.87410524   -19.547528     2.460284  -0.74013504   -9.8044048   -233.12367  -0.86512429   -9.5268236    198.10046   -1.1305308   -18.522448  -0.90612621  -0.90793033   -469.96477
Averages over the last 14 of 28 rows, steps 1400 to 2700:
Lx Pxx Pyy Pzz Temp COM1x[1] COM1x[2] COM1x[3] COM2x[1] COM2x[2] COM2x[3] COM3x[1] COM3x[2] COM3x[3] COM4x[1] COM4x[2] COM4x[3] COM5x[1] COM5x[2] COM5x[3] COMall[1 COMall[2 COMall[3
471.818 -440.792 -424.747 -517.158 301.585 2.44191 -0.76669 -19.4589 -233.102 -0.881335 -19.5355 2.43006 -0.742055 -9.75126 -233.085 -0.868918 -9.50909 198.123 -1.09597 -18.5577 -0.90794 -0.904627 -469.963
[0<-169] recv desc error, wc_opcode=11118
[0->169] wc.status=12, wc.wr_id=0x1f67dae0, wc.opcode=11118, vbuf->phead->type=0 = MPIDI_CH3_PKT_EAGER_SEND
[fission-0145:mpi_rank_201][MPIDI_CH3I_MRAILI_Cq_poll] src/mpid/ch3/channels/mrail/src/gen2/ibv_channel_manager.c:586: [] Got completion with error 12, vendor code=0x81, dest rank=169
: No such file or directory (2)
[0<-178] recv desc error, wc_opcode=11094
[0->178] wc.status=12, wc.wr_id=0xa55bae0, wc.opcode=11094, vbuf->phead->type=0 = MPIDI_CH3_PKT_EAGER_SEND
[fission-0145:mpi_rank_210][MPIDI_CH3I_MRAILI_Cq_poll] src/mpid/ch3/channels/mrail/src/gen2/ibv_channel_manager.c:586: [] Got completion with error 12, vendor code=0x81, dest rank=178
: No such file or directory (2)
[0<-164] recv desc error, wc_opcode=11015
[0->164] wc.status=12, wc.wr_id=0x1f8b4ae0, wc.opcode=11015, vbuf->phead->type=0 = MPIDI_CH3_PKT_EAGER_SEND
[0<-165] recv desc error, wc_opcode=11025
[0->165] wc.status=12, wc.wr_id=0x7dd8ae0, wc.opcode=11025, vbuf->phead->type=0 = MPIDI_CH3_PKT_EAGER_SEND
[0<-168] recv desc error, wc_opcode=11160
[0->168] wc.status=12, wc.wr_id=0x820fae0, wc.opcode=11160, vbuf->phead->type=0 = MPIDI_CH3_PKT_EAGER_SEND
[fission-0145:mpi_rank_196][MPIDI_CH3I_MRAILI_Cq_poll] src/mpid/ch3/channels/mrail/src/gen2/ibv_channel_manager.c:586: [] Got completion with error 12, vendor code=0x81, dest rank=164
: No such file or directory (2)
[fission-0145:mpi_rank_197][MPIDI_CH3I_MRAILI_Cq_poll] src/mpid/ch3/channels/mrail/src/gen2/ibv_channel_manager.c:586: [] Got completion with error 12, vendor code=0x81, dest rank=165
: No such file or directory (2)
[0<-185] recv desc error, wc_opcode=11073
[0->185] wc.status=12, wc.wr_id=0x1ce1dae0, wc.opcode=11073, vbuf->phead->type=0 = MPIDI_CH3_PKT_EAGER_SEND
[0<-188] recv desc error, wc_opcode=11001
[0->188] wc.status=12, wc.wr_id=0xd145ae0, wc.opcode=11001, vbuf->phead->type=0 = MPIDI_CH3_PKT_EAGER_SEND
[fission-0145:mpi_rank_200][MPIDI_CH3I_MRAILI_Cq_poll] src/mpid/ch3/channels/mrail/src/gen2/ibv_channel_manager.c:586: [] Got completion with error 12, vendor code=0x81, dest rank=168
: No such file or directory (2)
[0<-172] recv desc error, wc_opcode=11105
[0->172] wc.status=12, wc.wr_id=0x1ae63d20, wc.opcode=11105, vbuf->phead->type=0 = MPIDI_CH3_PKT_EAGER_SEND
[fission-0145:mpi_rank_204][MPIDI_CH3I_MRAILI_Cq_poll] src/mpid/ch3/channels/mrail/src/gen2/ibv_channel_manager.c:586: [] Got completion with error 12, vendor code=0x81, dest rank=172
: No such file or directory (2)
[fission-0145:mpi_rank_217][MPIDI_CH3I_MRAILI_Cq_poll] src/mpid/ch3/channels/mrail/src/gen2/ibv_channel_manager.c:586: [] Got completion with error 12, vendor code=0x81, dest rank=185
: No such file or directory (2)
[0<-186] recv desc error, wc_opcode=11099
[0->186] wc.status=12, wc.wr_id=0x1bfacd20, wc.opcode=11099, vbuf->phead->type=0 = MPIDI_CH3_PKT_EAGER_SEND
[fission-0145:mpi_rank_220][MPIDI_CH3I_MRAILI_Cq_poll] src/mpid/ch3/channels/mrail/src/gen2/ibv_channel_manager.c:586: [] Got completion with error 12, vendor code=0x81, dest rank=188
: No such file or directory (2)
[0<-161] recv desc error, wc_opcode=10934
[0->161] wc.status=12, wc.wr_id=0x36f16e0, wc.opcode=10934, vbuf->phead->type=0 = MPIDI_CH3_PKT_EAGER_SEND
[0<-163] recv desc error, wc_opcode=11088
[0->163] wc.status=12, wc.wr_id=0x10361ce0, wc.opcode=11088, vbuf->phead->type=0 = MPIDI_CH3_PKT_EAGER_SEND
[fission-0145:mpi_rank_195][MPIDI_CH3I_MRAILI_Cq_poll] src/mpid/ch3/channels/mrail/src/gen2/ibv_channel_manager.c:586: [] Got completion with error 12, vendor code=0x81, dest rank=163
: No such file or directory (2)
[0<-167] recv desc error, wc_opcode=11122
[0->167] wc.status=12, wc.wr_id=0x80e5ae0, wc.opcode=11122, vbuf->phead->type=0 = MPIDI_CH3_PKT_EAGER_SEND
[fission-0145:mpi_rank_199][MPIDI_CH3I_MRAILI_Cq_poll] src/mpid/ch3/channels/mrail/src/gen2/ibv_channel_manager.c:586: [] Got completion with error 12, vendor code=0x81, dest rank=167
: No such file or directory (2)
[0<-174] recv desc error, wc_opcode=11013
[0->174] wc.status=12, wc.wr_id=0x9d4aae0, wc.opcode=11013, vbuf->phead->type=0 = MPIDI_CH3_PKT_EAGER_SEND
[fission-0145:mpi_rank_218][MPIDI_CH3I_MRAILI_Cq_poll] src/mpid/ch3/channels/mrail/src/gen2/ibv_channel_manager.c:586: [] Got completion with error 12, vendor code=0x81, dest rank=186
: No such file or directory (2)
[fission-0145:mpi_rank_193][MPIDI_CH3I_MRAILI_Cq_poll] src/mpid/ch3/channels/mrail/src/gen2/ibv_channel_manager.c:586: [] Got completion with error 12, vendor code=0x81, dest rank=161
: No such file or directory (2)
[0<-170] recv desc error, wc_opcode=11011
[0->170] wc.status=12, wc.wr_id=0x9f53ae0, wc.opcode=11011, vbuf->phead->type=0 = MPIDI_CH3_PKT_EAGER_SEND
[0<-173] recv desc error, wc_opcode=10988
[0->173] wc.status=12, wc.wr_id=0x170c6ae0, wc.opcode=10988, vbuf->phead->type=0 = MPIDI_CH3_PKT_EAGER_SEND
[fission-0145:mpi_rank_206][MPIDI_CH3I_MRAILI_Cq_poll] src/mpid/ch3/channels/mrail/src/gen2/ibv_channel_manager.c:586: [] Got completion with error 12, vendor code=0x81, dest rank=174
: No such file or directory (2)
[0<-175] recv desc error, wc_opcode=11168
[0->175] wc.status=12, wc.wr_id=0x17281ae0, wc.opcode=11168, vbuf->phead->type=0 = MPIDI_CH3_PKT_EAGER_SEND
[fission-0145:mpi_rank_207][MPIDI_CH3I_MRAILI_Cq_poll] src/mpid/ch3/channels/mrail/src/gen2/ibv_channel_manager.c:586: [] Got completion with error 12, vendor code=0x81, dest rank=175
: No such file or directory (2)
[0<-181] recv desc error, wc_opcode=11146
[0->181] wc.status=12, wc.wr_id=0x5e88ae0, wc.opcode=11146, vbuf->phead->type=0 = MPIDI_CH3_PKT_EAGER_SEND
[fission-0145:mpi_rank_202][MPIDI_CH3I_MRAILI_Cq_poll] src/mpid/ch3/channels/mrail/src/gen2/ibv_channel_manager.c:586: [] Got completion with error 12, vendor code=0x81, dest rank=170
: No such file or directory (2)
[fission-0145:mpi_rank_205][MPIDI_CH3I_MRAILI_Cq_poll] src/mpid/ch3/channels/mrail/src/gen2/ibv_channel_manager.c:586: [] Got completion with error 12, vendor code=0x81, dest rank=173
: No such file or directory (2)
[0<-176] recv desc error, wc_opcode=10974
[0->176] wc.status=12, wc.wr_id=0x20eeae0, wc.opcode=10974, vbuf->phead->type=0 = MPIDI_CH3_PKT_EAGER_SEND
[0<-179] recv desc error, wc_opcode=11131
[0->179] wc.status=12, wc.wr_id=0x40b56e0, wc.opcode=11131, vbuf->phead->type=0 = MPIDI_CH3_PKT_EAGER_SEND
[0<-182] recv desc error, wc_opcode=11138
[0->182] wc.status=12, wc.wr_id=0x5da06e0, wc.opcode=11138, vbuf->phead->type=0 = MPIDI_CH3_PKT_EAGER_SEND
[0<-180] recv desc error, wc_opcode=10991
[0->180] wc.status=12, wc.wr_id=0x1ffcdae0, wc.opcode=10991, vbuf->phead->type=0 = MPIDI_CH3_PKT_EAGER_SEND
[fission-0145:mpi_rank_213][MPIDI_CH3I_MRAILI_Cq_poll] src/mpid/ch3/channels/mrail/src/gen2/ibv_channel_manager.c:586: [] Got completion with error 12, vendor code=0x81, dest rank=181
: No such file or directory (2)
[0<-184] recv desc error, wc_opcode=11139
[0->184] wc.status=12, wc.wr_id=0x1a2d6d20, wc.opcode=11139, vbuf->phead->type=0 = MPIDI_CH3_PKT_EAGER_SEND
[0<-162] recv desc error, wc_opcode=10968
[0->162] wc.status=12, wc.wr_id=0x46086e0, wc.opcode=10968, vbuf->phead->type=0 = MPIDI_CH3_PKT_EAGER_SEND
[fission-0145:mpi_rank_208][MPIDI_CH3I_MRAILI_Cq_poll] src/mpid/ch3/channels/mrail/src/gen2/ibv_channel_manager.c:586: [] Got completion with error 12, vendor code=0x81, dest rank=176
: No such file or directory (2)
[0<-177] recv desc error, wc_opcode=11131
[0->177] wc.status=12, wc.wr_id=0xcfbd6e0, wc.opcode=11131, vbuf->phead->type=0 = MPIDI_CH3_PKT_EAGER_SEND
[fission-0145:mpi_rank_211][MPIDI_CH3I_MRAILI_Cq_poll] src/mpid/ch3/channels/mrail/src/gen2/ibv_channel_manager.c:586: [] Got completion with error 12, vendor code=0x81, dest rank=179
: No such file or directory (2)
[fission-0145:mpi_rank_214][MPIDI_CH3I_MRAILI_Cq_poll] src/mpid/ch3/channels/mrail/src/gen2/ibv_channel_manager.c:586: [] Got completion with error 12, vendor code=0x81, dest rank=182
: No such file or directory (2)
[fission-0145:mpi_rank_216][MPIDI_CH3I_MRAILI_Cq_poll] src/mpid/ch3/channels/mrail/src/gen2/ibv_channel_manager.c:586: [] Got completion with error 12, vendor code=0x81, dest rank=184
: No such file or directory (2)
[0<-187] recv desc error, wc_opcode=11138
[0->187] wc.status=12, wc.wr_id=0xdad5ce0, wc.opcode=11138, vbuf->phead->type=0 = MPIDI_CH3_PKT_EAGER_SEND
[fission-0145:mpi_rank_219][MPIDI_CH3I_MRAILI_Cq_poll] src/mpid/ch3/channels/mrail/src/gen2/ibv_channel_manager.c:586: [] Got completion with error 12, vendor code=0x81, dest rank=187
: No such file or directory (2)
[0<-166] recv desc error, wc_opcode=11171
[0->166] wc.status=12, wc.wr_id=0x175ccae0, wc.opcode=11171, vbuf->phead->type=0 = MPIDI_CH3_PKT_EAGER_SEND
[fission-0145:mpi_rank_209][MPIDI_CH3I_MRAILI_Cq_poll] src/mpid/ch3/channels/mrail/src/gen2/ibv_channel_manager.c:586: [] Got completion with error 12, vendor code=0x81, dest rank=177
: No such file or directory (2)
[fission-0145:mpi_rank_212][MPIDI_CH3I_MRAILI_Cq_poll] src/mpid/ch3/channels/mrail/src/gen2/ibv_channel_manager.c:586: [] Got completion with error 12, vendor code=0x81, dest rank=180
: No such file or directory (2)
[0<-191] recv desc error, wc_opcode=11130
[0->191] wc.status=12, wc.wr_id=0x2d2a888, wc.opcode=11130, vbuf->phead->type=0 = MPIDI_CH3_PKT_EAGER_SEND
[fission-0145:mpi_rank_194][MPIDI_CH3I_MRAILI_Cq_poll] src/mpid/ch3/channels/mrail/src/gen2/ibv_channel_manager.c:586: [] Got completion with error 12, vendor code=0x81, dest rank=162
: No such file or directory (2)
[fission-0145:mpi_rank_198][MPIDI_CH3I_MRAILI_Cq_poll] src/mpid/ch3/channels/mrail/src/gen2/ibv_channel_manager.c:586: [] Got completion with error 12, vendor code=0x81, dest rank=166
: No such file or directory (2)
[0<-183] recv desc error, wc_opcode=11161
[fission-0145:mpi_rank_223][MPIDI_CH3I_MRAILI_Cq_poll] src/mpid/ch3/channels/mrail/src/gen2/ibv_channel_manager.c:586: [] Got completion with error 12, vendor code=0x81, dest rank=191
: No such file or directory (2)
[0->183] wc.status=12, wc.wr_id=0x16833ce0, wc.opcode=11161, vbuf->phead->type=0 = MPIDI_CH3_PKT_EAGER_SEND
[0<-171] recv desc error, wc_opcode=10972
[0->171] wc.status=12, wc.wr_id=0x13b7fae0, wc.opcode=10972, vbuf->phead->type=0 = MPIDI_CH3_PKT_EAGER_SEND
[0<-190] recv desc error, wc_opcode=11055
[fission-0145:mpi_rank_215][MPIDI_CH3I_MRAILI_Cq_poll] src/mpid/ch3/channels/mrail/src/gen2/ibv_channel_manager.c:586: [] Got completion with error 12, vendor code=0x81, dest rank=183
: No such file or directory (2)
[0<-189] recv desc error, wc_opcode=10996
[0->189] wc.status=12, wc.wr_id=0xfdeae0, wc.opcode=10996, vbuf->phead->type=0 = MPIDI_CH3_PKT_EAGER_SEND
[0->190] wc.status=12, wc.wr_id=0x108f4ae0, wc.opcode=11055, vbuf->phead->type=0 = MPIDI_CH3_PKT_EAGER_SEND
[fission-0145:mpi_rank_203][MPIDI_CH3I_MRAILI_Cq_poll] src/mpid/ch3/channels/mrail/src/gen2/ibv_channel_manager.c:586: [] Got completion with error 12, vendor code=0x81, dest rank=171
: No such file or directory (2)
[fission-0145:mpi_rank_221][MPIDI_CH3I_MRAILI_Cq_poll] src/mpid/ch3/channels/mrail/src/gen2/ibv_channel_manager.c:586: [] Got completion with error 12, vendor code=0x81, dest rank=189
: No such file or directory (2)
[fission-0145:mpi_rank_222][MPIDI_CH3I_MRAILI_Cq_poll] src/mpid/ch3/channels/mrail/src/gen2/ibv_channel_manager.c:586: [] Got completion with error 12, vendor code=0x81, dest rank=190
: No such file or directory (2)

===================================================================================
=   BAD TERMINATION OF ONE OF YOUR APPLICATION PROCESSES
=   EXIT CODE: 252
=   CLEANING UP REMAINING PROCESSES
=   YOU CAN IGNORE THE BELOW CLEANUP MESSAGES
===================================================================================
[proxy:0:0@fission-0311] HYD_pmcd_pmip_control_cmd_cb (./pm/pmiserv/pmip_cb.c:913): assert (!closed) failed
[proxy:0:0@fission-0311] HYDT_dmxu_poll_wait_for_event (./tools/demux/demux_poll.c:77): callback returned error status
[proxy:0:0@fission-0311] main (./pm/pmiserv/pmip.c:206): demux engine error waiting for event
[proxy:0:4@fission-0222] HYD_pmcd_pmip_control_cmd_cb (./pm/pmiserv/pmip_cb.c:913): assert (!closed) failed
[proxy:0:4@fission-0222] HYDT_dmxu_poll_wait_for_event (./tools/demux/demux_poll.c:77): callback returned error status
[proxy:0:4@fission-0222] main (./pm/pmiserv/pmip.c:206): demux engine error waiting for event
[mpiexec@fission-0311] HYDT_bscu_wait_for_completion (./tools/bootstrap/utils/bscu_wait.c:76): one of the processes terminated badly; aborting
[mpiexec@fission-0311] HYDT_bsci_wait_for_completion (./tools/bootstrap/src/bsci_wait.c:23): launcher returned error waiting for completion
[mpiexec@fission-0311] HYD_pmci_wait_for_completion (./pm/pmiserv/pmiserv_pmci.c:217): launcher returned error waiting for completion
[mpiexec@fission-0311] main (./ui/mpich/mpiexec.c:331): process manager error waiting for completion
