fission-0265
fission-0265
fission-0265
fission-0265
fission-0265
fission-0265
fission-0265
fission-0265
fission-0265
fission-0265
fission-0265
fission-0265
fission-0265
fission-0265
fission-0265
fission-0265
fission-0265
fission-0265
fission-0265
fission-0265
fission-0265
fission-0265
fission-0265
fission-0265
fission-0265
fission-0265
fission-0265
fission-0265
fission-0265
fission-0265
fission-0265
fission-0265
fission-0271
fission-0271
fission-0271
fission-0271
fission-0271
fission-0271
fission-0271
fission-0271
fission-0271
fission-0271
fission-0271
fission-0271
fission-0271
fission-0271
fission-0271
fission-0271
fission-0271
fission-0271
fission-0271
fission-0271
fission-0271
fission-0271
fission-0271
fission-0271
fission-0271
fission-0271
fission-0271
fission-0271
fission-0271
fission-0271
fission-0271
fission-0271
fission-0252
fission-0252
fission-0252
fission-0252
fission-0252
fission-0252
fission-0252
fission-0252
fission-0252
fission-0252
fission-0252
fission-0252
fission-0252
fission-0252
fission-0252
fission-0252
fission-0252
fission-0252
fission-0252
fission-0252
fission-0252
fission-0252
fission-0252
fission-0252
fission-0252
fission-0252
fission-0252
fission-0252
fission-0252
fission-0252
fission-0252
fission-0252
fission-0266
fission-0266
fission-0266
fission-0266
fission-0266
fission-0266
fission-0266
fission-0266
fission-0266
fission-0266
fission-0266
fission-0266
fission-0266
fission-0266
fission-0266
fission-0266
fission-0266
fission-0266
fission-0266
fission-0266
fission-0266
fission-0266
fission-0266
fission-0266
fission-0266
fission-0266
fission-0266
fission-0266
fission-0266
fission-0266
fission-0266
fission-0266
fission-0273
fission-0273
fission-0273
fission-0273
fission-0273
fission-0273
fission-0273
fission-0273
fission-0273
fission-0273
fission-0273
fission-0273
fission-0273
fission-0273
fission-0273
fission-0273
fission-0273
fission-0273
fission-0273
fission-0273
fission-0273
fission-0273
fission-0273
fission-0273
fission-0273
fission-0273
fission-0273
fission-0273
fission-0273
fission-0273
fission-0273
fission-0273
fission-0267
fission-0267
fission-0267
fission-0267
fission-0267
fission-0267
fission-0267
fission-0267
fission-0267
fission-0267
fission-0267
fission-0267
fission-0267
fission-0267
fission-0267
fission-0267
fission-0267
fission-0267
fission-0267
fission-0267
fission-0267
fission-0267
fission-0267
fission-0267
fission-0267
fission-0267
fission-0267
fission-0267
fission-0267
fission-0267
fission-0267
fission-0267
fission-0272
fission-0272
fission-0272
fission-0272
fission-0272
fission-0272
fission-0272
fission-0272
fission-0272
fission-0272
fission-0272
fission-0272
fission-0272
fission-0272
fission-0272
fission-0272
fission-0272
fission-0272
fission-0272
fission-0272
fission-0272
fission-0272
fission-0272
fission-0272
fission-0272
fission-0272
fission-0272
fission-0272
fission-0272
fission-0272
fission-0272
fission-0272
fission-0274
fission-0274
fission-0274
fission-0274
fission-0274
fission-0274
fission-0274
fission-0274
fission-0274
fission-0274
fission-0274
fission-0274
fission-0274
fission-0274
fission-0274
fission-0274
fission-0274
fission-0274
fission-0274
fission-0274
fission-0274
fission-0274
fission-0274
fission-0274
fission-0274
fission-0274
fission-0274
fission-0274
fission-0274
fission-0274
fission-0274
fission-0274
fission-0275
fission-0275
fission-0275
fission-0275
fission-0275
fission-0275
fission-0275
fission-0275
fission-0275
fission-0275
fission-0275
fission-0275
fission-0275
fission-0275
fission-0275
fission-0275
fission-0275
fission-0275
fission-0275
fission-0275
fission-0275
fission-0275
fission-0275
fission-0275
fission-0275
fission-0275
fission-0275
fission-0275
fission-0275
fission-0275
fission-0275
fission-0275
fission-0276
fission-0276
fission-0276
fission-0276
fission-0276
fission-0276
fission-0276
fission-0276
fission-0276
fission-0276
fission-0276
fission-0276
fission-0276
fission-0276
fission-0276
fission-0276
fission-0276
fission-0276
fission-0276
fission-0276
fission-0276
fission-0276
fission-0276
fission-0276
fission-0276
fission-0276
fission-0276
fission-0276
fission-0276
fission-0276
fission-0276
fission-0276
fission-0279
fission-0279
fission-0279
fission-0279
fission-0279
fission-0279
fission-0279
fission-0279
fission-0279
fission-0279
fission-0279
fission-0279
fission-0279
fission-0279
fission-0279
fission-0279
fission-0279
fission-0279
fission-0279
fission-0279
fission-0279
fission-0279
fission-0279
fission-0279
fission-0279
fission-0279
fission-0279
fission-0279
fission-0279
fission-0279
fission-0279
fission-0279
fission-0256
fission-0256
fission-0256
fission-0256
fission-0256
fission-0256
fission-0256
fission-0256
fission-0256
fission-0256
fission-0256
fission-0256
fission-0256
fission-0256
fission-0256
fission-0256
fission-0256
fission-0256
fission-0256
fission-0256
fission-0256
fission-0256
fission-0256
fission-0256
fission-0256
fission-0256
fission-0256
fission-0256
fission-0256
fission-0256
fission-0256
fission-0256
fission-0262
fission-0262
fission-0262
fission-0262
fission-0262
fission-0262
fission-0262
fission-0262
fission-0262
fission-0262
fission-0262
fission-0262
fission-0262
fission-0262
fission-0262
fission-0262
fission-0262
fission-0262
fission-0262
fission-0262
fission-0262
fission-0262
fission-0262
fission-0262
fission-0262
fission-0262
fission-0262
fission-0262
fission-0262
fission-0262
fission-0262
fission-0262
fission-0260
fission-0260
fission-0260
fission-0260
fission-0260
fission-0260
fission-0260
fission-0260
fission-0260
fission-0260
fission-0260
fission-0260
fission-0260
fission-0260
fission-0260
fission-0260
fission-0260
fission-0260
fission-0260
fission-0260
fission-0260
fission-0260
fission-0260
fission-0260
fission-0260
fission-0260
fission-0260
fission-0260
fission-0260
fission-0260
fission-0260
fission-0260
fission-0253
fission-0253
fission-0253
fission-0253
fission-0253
fission-0253
fission-0253
fission-0253
fission-0253
fission-0253
fission-0253
fission-0253
fission-0253
fission-0253
fission-0253
fission-0253
fission-0253
fission-0253
fission-0253
fission-0253
fission-0253
fission-0253
fission-0253
fission-0253
fission-0253
fission-0253
fission-0253
fission-0253
fission-0253
fission-0253
fission-0253
fission-0253
fission-0254
fission-0254
fission-0254
fission-0254
fission-0254
fission-0254
fission-0254
fission-0254
fission-0254
fission-0254
fission-0254
fission-0254
fission-0254
fission-0254
fission-0254
fission-0254
fission-0254
fission-0254
fission-0254
fission-0254
fission-0254
fission-0254
fission-0254
fission-0254
fission-0254
fission-0254
fission-0254
fission-0254
fission-0254
fission-0254
fission-0254
fission-0254

The following PBS extra args (PBS_EXTRA_ARGS) will be used: -P ldrd
The following lammps extra args (LAMMPS_EXTRA_ARGS) will be used:
LAMMPS (16 Feb 2016)
#log		log.c
units           metal
dimension       3
boundary        p p p
atom_style      atomic
shell         mkdir  cfg
shell         mkdir  dump

# ----------------------- ATOM DEFINITION & Force Field -------------
# ----------------------- ATOM DEFINITION ----------------------------
lattice         fcc 4.024845358 #origin 0.0 0.0 0.0 orient x 1 -1 0 orient y 1 1 -2 orient z 1 1 1
Lattice spacing in x,y,z = 4.02485 4.02485 4.02485
variable        Lx equal 52
variable        Ly equal 2
variable        Lz equal 208
variable        boxLZ equal 218
region          SYSTEM block -52 52 -2 2 -208 0 units lattice
region          BOX block -52 52 -2 2 -218 5 units lattice
create_box      1 BOX
Created orthogonal box = (-209.292 -8.04969 -877.416) to (209.292 8.04969 20.1242)
create_atoms    1 region SYSTEM
Created 346944 atoms

delete_atoms     porosity BOX 0.0001 21405    ##random seed <RAND1>
Deleted 22 atoms, new total = 346922

#---------------------------------------------------------------------------------
pair_style      eam/alloy
pair_coeff  	  * * Al_wkg_MSMSE_2009.set Al

#----------------------------------------------------------------------------------
velocity       all create 300.0 29095 mom yes rot yes dist gaussian         ##random seed <RAND2>

fix             1 all npt temp 300 300 0.1 iso 0.0 0.0 2
run      10000
  1 neighbor list requests
  update every 1 steps, delay 10 steps, check yes
Setting up Verlet run ...
  Unit style  : metal
  Current step: 0
  Time step   : 0.001
Step Temp E_pair E_mol TotEng Press Volume
0          300   -917163.48            0   -903710.56    2161.9589    6048473.6
Loop time of 58.729 on 512 procs for 10000 steps with 346922 atoms

unfix 1

fix            2 all nvt temp 300.0 300.0 0.1

run      10000
Setting up Verlet run ...
  Unit style  : metal
  Current step: 10000
  Time step   : 0.001
Step Temp E_pair E_mol TotEng Press
10000    298.99089    -903068.3            0   -889660.64    17.224547
Loop time of 55.5336 on 512 procs for 10000 steps with 346922 atoms

reset_timestep 0
unfix    2
#---------------------- DEFINE Laser GERION and GROUP ----------------
region       R1  block -75  75  INF  INF  INF  5  units box
group        G1 region R1
123532 atoms in group G1
group        G2 subtract all G1
223390 atoms in group G2

#define     temperature/pressure calculation  group
variable    x1atom atom "x>=0  &&  x<4 &&  z>-40 && z<1"     ##NEW!!!!!!!!!!!!
variable    x2atom atom "x>=-209.292  &&  x<-205.292 &&  z>-40 && z<1"
variable    x3atom atom "x>=0  &&  x<4 &&  z>-20 && z<1"
variable    x4atom atom "x>=-209.292  &&  x<-205.292 &&  z>-20 && z<1"
variable    x5atom atom "x>=196  &&  x<200 &&  z>-40 && z<1"

group       x1atom variable x1atom
149 atoms in group x1atom
group       x2atom variable x2atom
160 atoms in group x2atom
group       x3atom variable x3atom
72 atoms in group x3atom
group       x4atom variable x4atom
80 atoms in group x4atom
group       x5atom variable x5atom
160 atoms in group x5atom

compute      COM1x x1atom com
compute      COM2x x2atom com
compute      COM3x x3atom com
compute      COM4x x4atom com
compute      COM5x x5atom com

compute      COMall all com

#Temperature profile
#variable      Tprofile atom 300*(1+(step/5000)*2.5*exp(z/40))
variable      Tprofile atom 300*(1+(step/5000)*2.5*exp(z/75))

# ------------------------- SETTINGS ---------------------------------
thermo          100
thermo_style    custom step lx pxx pyy pzz temp c_COM1x[1] c_COM1x[2] c_COM1x[3] c_COM2x[1] c_COM2x[2] c_COM2x[3] c_COM3x[1] c_COM3x[2] c_COM3x[3] c_COM4x[1] c_COM4x[2] c_COM4x[3]  c_COM5x[1] c_COM5x[2] c_COM5x[3] c_COMall[1] c_COMall[2] c_COMall[3]

timestep       0.002

compute dispall all displace/atom
# ---------------- Run Laser Material Interaction --------------------
#dump          1 all custom 1000 dump/z1dump.atom id type x y z c_dispall[1]  c_dispall[2]  c_dispall[3] c_dispall[4]
#dump          2 all cfg 100 cfg/*.cfg mass type xs ys zs
#dump_modify   2 element Al

#relax for 2 PS
#fix           1 all nvt temp 300.0 300.0 0.1
#run  1000
#unfix         1

fix           1  all nve
fix           3temp  G1  langevin  v_Tprofile  0  0.1  378411   #TEST ALL
run           5000
Setting up Verlet run ...
  Unit style  : metal
  Current step: 0
  Time step   : 0.002
Step Lx Pxx Pyy Pzz Temp COM1x[1] COM1x[2] COM1x[3] COM2x[1] COM2x[2] COM2x[3] COM3x[1] COM3x[2] COM3x[3] COM4x[1] COM4x[2] COM4x[3] COM5x[1] COM5x[2] COM5x[3] COMall[1 COMall[2 COMall[3
0    421.53596    358.40029    311.49629   -51.347389    300.27224    1.7977704  -0.98445461   -19.754443   -207.81344  -0.86562873   -19.773686    2.0073643   -1.1476627   -8.8905423   -207.85213  -0.90333077   -9.6492001    197.49798  -0.94331236   -19.685537   -1.0106146   -1.0132842   -418.51562
Averages over the last 26 of 51 rows, steps 2500 to 5000:
Lx Pxx Pyy Pzz Temp COM1x[1] COM1x[2] COM1x[3] COM2x[1] COM2x[2] COM2x[3] COM3x[1] COM3x[2] COM3x[3] COM4x[1] COM4x[2] COM4x[3] COM5x[1] COM5x[2] COM5x[3] COMall[1 COMall[2 COMall[3
421.536 1329.5 1289.6 709.241 321.881 1.70043 -0.976893 -19.3744 -207.732 -1.03469 -19.7981 1.93319 -1.05314 -8.31144 -207.734 -1.0323 -9.63314 197.67 -1.02557 -19.7873 -1.00071 -0.995595 -418.561
Loop time of 29.6545 on 512 procs for 5000 steps with 346922 atoms

variable  com1_x equal "c_COM1x[1]"
variable  com1_y equal "c_COM1x[2]"
variable  com1_z equal "c_COM1x[3]"
variable  com2_x equal "c_COM2x[1]"
variable  com2_y equal "c_COM2x[2]"
variable  com2_z equal "c_COM2x[3]"
variable  com3_x equal "c_COM3x[1]"
variable  com3_y equal "c_COM3x[2]"
variable  com3_z equal "c_COM3x[3]"
variable  com4_x equal "c_COM4x[1]"
variable  com4_y equal "c_COM4x[2]"
variable  com4_z equal "c_COM4x[3]"
variable  com5_x equal "c_COM5x[1]"
variable  com5_y equal "c_COM5x[2]"
variable  com5_z equal "c_COM5x[3]"
variable  comall_x equal "c_COMall[1]"
variable  comall_y equal "c_COMall[2]"
variable  comall_z equal "c_COMall[3]"

#-------------------------- Wave Propagation -------------------------
unfix        3temp
run          1000000
Setting up Verlet run ...
  Unit style  : metal
  Current step: 5000
  Time step   : 0.002
Step Lx Pxx Pyy Pzz Temp COM1x[1] COM1x[2] COM1x[3] COM2x[1] COM2x[2] COM2x[3] COM3x[1] COM3x[2] COM3x[3] COM4x[1] COM4x[2] COM4x[3] COM5x[1] COM5x[2] COM5x[3] COMall[1 COMall[2 COMall[3
5000    421.53596    1581.8797    1580.4576    838.28411    330.18611    1.7275595  -0.77980277   -19.170032   -207.87665   -1.1159166   -19.617905     2.004332  -0.81014476   -7.9949741   -207.90159   -1.1288052   -9.4547851    197.55464   -1.2064766   -19.585923   -1.0101197    -1.000016   -418.56115
Averages over the last 5001 of 10001 rows, steps 505000 to 1005000:
Lx Pxx Pyy Pzz Temp COM1x[1] COM1x[2] COM1x[3] COM2x[1] COM2x[2] COM2x[3] COM3x[1] COM3x[2] COM3x[3] COM4x[1] COM4x[2] COM4x[3] COM5x[1] COM5x[2] COM5x[3] COMall[1 COMall[2 COMall[3
421.536 1164.44 1140.85 -7.5047 330.598 -25.526 -7.46191 -23.0861 -235.049 -7.51002 -23.1268 -25.2949 -7.56616 -12.1643 -235.05 -7.51029 -12.9617 170.274 -7.50985 -23.1265 -28.3321 -7.50962 -422.59
Loop time of 5802.37 on 512 procs for 1000000 steps with 346922 atoms
