fission-0210
fission-0210
fission-0210
fission-0210
fission-0210
fission-0210
fission-0210
fission-0210
fission-0210
fission-0210
fission-0210
fission-0210
fission-0210
fission-0210
fission-0210
fission-0210
fission-0210
fission-0210
fission-0210
fission-0210
fission-0210
fission-0210
fission-0210
fission-0210
fission-0210
fission-0210
fission-0210
fission-0210
fission-0210
fission-0210
fission-0210
fission-0210
fission-0215
fission-0215
fission-0215
fission-0215
fission-0215
fission-0215
fission-0215
fission-0215
fission-0215
fission-0215
fission-0215
fission-0215
fission-0215
fission-0215
fission-0215
fission-0215
fission-0215
fission-0215
fission-0215
fission-0215
fission-0215
fission-0215
fission-0215
fission-0215
fission-0215
fission-0215
fission-0215
fission-0215
fission-0215
fission-0215
fission-0215
fission-0215
fission-0208
fission-0208
fission-0208
fission-0208
fission-0208
fission-0208
fission-0208
fission-0208
fission-0208
fission-0208
fission-0208
fission-0208
fission-0208
fission-0208
fission-0208
fission-0208
fission-0208
fission-0208
fission-0208
fission-0208
fission-0208
fission-0208
fission-0208
fission-0208
fission-0208
fission-0208
fission-0208
fission-0208
fission-0208
fission-0208
fission-0208
fission-0208
fission-0213
fission-0213
fission-0213
fission-0213
fission-0213
fission-0213
fission-0213
fission-0213
fission-0213
fission-0213
fission-0213
fission-0213
fission-0213
fission-0213
fission-0213
fission-0213
fission-0213
fission-0213
fission-0213
fission-0213
fission-0213
fission-0213
fission-0213
fission-0213
fission-0213
fission-0213
fission-0213
fission-0213
fission-0213
fission-0213
fission-0213
fission-0213
fission-0219
fission-0219
fission-0219
fission-0219
fission-0219
fission-0219
fission-0219
fission-0219
fission-0219
fission-0219
fission-0219
fission-0219
fission-0219
fission-0219
fission-0219
fission-0219
fission-0219
fission-0219
fission-0219
fission-0219
fission-0219
fission-0219
fission-0219
fission-0219
fission-0219
fission-0219
fission-0219
fission-0219
fission-0219
fission-0219
fission-0219
fission-0219
fission-0211
fission-0211
fission-0211
fission-0211
fission-0211
fission-0211
fission-0211
fission-0211
fission-0211
fission-0211
fission-0211
fission-0211
fission-0211
fission-0211
fission-0211
fission-0211
fission-0211
fission-0211
fission-0211
fission-0211
fission-0211
fission-0211
fission-0211
fission-0211
fission-0211
fission-0211
fission-0211
fission-0211
fission-0211
fission-0211
fission-0211
fission-0211
fission-0212
fission-0212
fission-0212
fission-0212
fission-0212
fission-0212
fission-0212
fission-0212
fission-0212
fission-0212
fission-0212
fission-0212
fission-0212
fission-0212
fission-0212
fission-0212
fission-0212
fission-0212
fission-0212
fission-0212
fission-0212
fission-0212
fission-0212
fission-0212
fission-0212
fission-0212
fission-0212
fission-0212
fission-0212
fission-0212
fission-0212
fission-0212
fission-0220
fission-0220
fission-0220
fission-0220
fission-0220
fission-0220
fission-0220
fission-0220
fission-0220
fission-0220
fission-0220
fission-0220
fission-0220
fission-0220
fission-0220
fission-0220
fission-0220
fission-0220
fission-0220
fission-0220
fission-0220
fission-0220
fission-0220
fission-0220
fission-0220
fission-0220
fission-0220
fission-0220
fission-0220
fission-0220
fission-0220
fission-0220
fission-0223
fission-0223
fission-0223
fission-0223
fission-0223
fission-0223
fission-0223
fission-0223
fission-0223
fission-0223
fission-0223
fission-0223
fission-0223
fission-0223
fission-0223
fission-0223
fission-0223
fission-0223
fission-0223
fission-0223
fission-0223
fission-0223
fission-0223
fission-0223
fission-0223
fission-0223
fission-0223
fission-0223
fission-0223
fission-0223
fission-0223
fission-0223
fission-0221
fission-0221
fission-0221
fission-0221
fission-0221
fission-0221
fission-0221
fission-0221
fission-0221
fission-0221
fission-0221
fission-0221
fission-0221
fission-0221
fission-0221
fission-0221
fission-0221
fission-0221
fission-0221
fission-0221
fission-0221
fission-0221
fission-0221
fission-0221
fission-0221
fission-0221
fission-0221
fission-0221
fission-0221
fission-0221
fission-0221
fission-0221
fission-0204
fission-0204
fission-0204
fission-0204
fission-0204
fission-0204
fission-0204
fission-0204
fission-0204
fission-0204
fission-0204
fission-0204
fission-0204
fission-0204
fission-0204
fission-0204
fission-0204
fission-0204
fission-0204
fission-0204
fission-0204
fission-0204
fission-0204
fission-0204
fission-0204
fission-0204
fission-0204
fission-0204
fission-0204
fission-0204
fission-0204
fission-0204
fission-0200
fission-0200
fission-0200
fission-0200
fission-0200
fission-0200
fission-0200
fission-0200
fission-0200
fission-0200
fission-0200
fission-0200
fission-0200
fission-0200
fission-0200
fission-0200
fission-0200
fission-0200
fission-0200
fission-0200
fission-0200
fission-0200
fission-0200
fission-0200
fission-0200
fission-0200
fission-0200
fission-0200
fission-0200
fission-0200
fission-0200
fission-0200
fission-0198
fission-0198
fission-0198
fission-0198
fission-0198
fission-0198
fission-0198
fission-0198
fission-0198
fission-0198
fission-0198
fission-0198
fission-0198
fission-0198
fission-0198
fission-0198
fission-0198
fission-0198
fission-0198
fission-0198
fission-0198
fission-0198
fission-0198
fission-0198
fission-0198
fission-0198
fission-0198
fission-0198
fission-0198
fission-0198
fission-0198
fission-0198
fission-0199
fission-0199
fission-0199
fission-0199
fission-0199
fission-0199
fission-0199
fission-0199
fission-0199
fission-0199
fission-0199
fission-0199
fission-0199
fission-0199
fission-0199
fission-0199
fission-0199
fission-0199
fission-0199
fission-0199
fission-0199
fission-0199
fission-0199
fission-0199
fission-0199
fission-0199
fission-0199
fission-0199
fission-0199
fission-0199
fission-0199
fission-0199
fission-0201
fission-0201
fission-0201
fission-0201
fission-0201
fission-0201
fission-0201
fission-0201
fission-0201
fission-0201
fission-0201
fission-0201
fission-0201
fission-0201
fission-0201
fission-0201
fission-0201
fission-0201
fission-0201
fission-0201
fission-0201
fission-0201
fission-0201
fission-0201
fission-0201
fission-0201
fission-0201
fission-0201
fission-0201
fission-0201
fission-0201
fission-0201
fission-0203
fission-0203
fission-0203
fission-0203
fission-0203
fission-0203
fission-0203
fission-0203
fission-0203
fission-0203
fission-0203
fission-0203
fission-0203
fission-0203
fission-0203
fission-0203
fission-0203
fission-0203
fission-0203
fission-0203
fission-0203
fission-0203
fission-0203
fission-0203
fission-0203
fission-0203
fission-0203
fission-0203
fission-0203
fission-0203
fission-0203
fission-0203

The following PBS extra args (PBS_EXTRA_ARGS) will be used: -P ldrd
The following lammps extra args (LAMMPS_EXTRA_ARGS) will be used:
LAMMPS (16 Feb 2016)
#log		log.c
units           metal
dimension       3
boundary        p p p
atom_style      atomic
shell         mkdir  cfg
shell         mkdir  dump

# ----------------------- ATOM DEFINITION & Force Field -------------
# ----------------------- ATOM DEFINITION ----------------------------
lattice         fcc 4.024845358 #origin 0.0 0.0 0.0 orient x 1 -1 0 orient y 1 1 -2 orient z 1 1 1
Lattice spacing in x,y,z = 4.02485 4.02485 4.02485
variable        Lx equal 52
variable        Ly equal 2
variable        Lz equal 208
variable        boxLZ equal 218
region          SYSTEM block -52 52 -2 2 -208 0 units lattice
region          BOX block -52 52 -2 2 -218 5 units lattice
create_box      1 BOX
Created orthogonal box = (-209.292 -8.04969 -877.416) to (209.292 8.04969 20.1242)
create_atoms    1 region SYSTEM
Created 346944 atoms

delete_atoms     porosity BOX 0.0001 9378    ##random seed <RAND1>
Deleted 33 atoms, new total = 346911

#---------------------------------------------------------------------------------
pair_style      eam/alloy
pair_coeff  	  * * Al_wkg_MSMSE_2009.set Al

#----------------------------------------------------------------------------------
velocity       all create 300.0 18217 mom yes rot yes dist gaussian         ##random seed <RAND2>

fix             1 all npt temp 300 300 0.1 iso 0.0 0.0 2
run      10000
  1 neighbor list requests
  update every 1 steps, delay 10 steps, check yes
Setting up Verlet run ...
  Unit style  : metal
  Current step: 0
  Time step   : 0.001
Step Temp E_pair E_mol TotEng Press Volume
0          300   -917125.86            0   -903673.37    2152.7752    6048473.6
Loop time of 62.4099 on 512 procs for 10000 steps with 346911 atoms

unfix 1

fix            2 all nvt temp 300.0 300.0 0.1

run      10000
Setting up Verlet run ...
  Unit style  : metal
  Current step: 10000
  Time step   : 0.001
Step Temp E_pair E_mol TotEng Press
10000    299.51777   -903040.16            0   -889609.29    16.303175
Loop time of 60.0421 on 512 procs for 10000 steps with 346911 atoms

reset_timestep 0
unfix    2
#---------------------- DEFINE Laser GERION and GROUP ----------------
region       R1  block -75  75  INF  INF  INF  5  units box
group        G1 region R1
123681 atoms in group G1
group        G2 subtract all G1
223230 atoms in group G2

#define     temperature/pressure calculation  group
variable    x1atom atom "x>=0  &&  x<4 &&  z>-40 && z<1"     ##NEW!!!!!!!!!!!!
variable    x2atom atom "x>=-209.292  &&  x<-205.292 &&  z>-40 && z<1"
variable    x3atom atom "x>=0  &&  x<4 &&  z>-20 && z<1"
variable    x4atom atom "x>=-209.292  &&  x<-205.292 &&  z>-20 && z<1"
variable    x5atom atom "x>=196  &&  x<200 &&  z>-40 && z<1"

group       x1atom variable x1atom
155 atoms in group x1atom
group       x2atom variable x2atom
160 atoms in group x2atom
group       x3atom variable x3atom
78 atoms in group x3atom
group       x4atom variable x4atom
80 atoms in group x4atom
group       x5atom variable x5atom
160 atoms in group x5atom

compute      COM1x x1atom com
compute      COM2x x2atom com
compute      COM3x x3atom com
compute      COM4x x4atom com
compute      COM5x x5atom com

compute      COMall all com

#Temperature profile
#variable      Tprofile atom 300*(1+(step/5000)*2.5*exp(z/40))
variable      Tprofile atom 300*(1+(step/5000)*2.5*exp(z/75))

# ------------------------- SETTINGS ---------------------------------
thermo          100
thermo_style    custom step lx pxx pyy pzz temp c_COM1x[1] c_COM1x[2] c_COM1x[3] c_COM2x[1] c_COM2x[2] c_COM2x[3] c_COM3x[1] c_COM3x[2] c_COM3x[3] c_COM4x[1] c_COM4x[2] c_COM4x[3]  c_COM5x[1] c_COM5x[2] c_COM5x[3] c_COMall[1] c_COMall[2] c_COMall[3]

timestep       0.002

compute dispall all displace/atom
# ---------------- Run Laser Material Interaction --------------------
#dump          1 all custom 1000 dump/z1dump.atom id type x y z c_dispall[1]  c_dispall[2]  c_dispall[3] c_dispall[4]
#dump          2 all cfg 100 cfg/*.cfg mass type xs ys zs
#dump_modify   2 element Al

#relax for 2 PS
#fix           1 all nvt temp 300.0 300.0 0.1
#run  1000
#unfix         1

fix           1  all nve
fix           3temp  G1  langevin  v_Tprofile  0  0.1  378411   #TEST ALL
run           5000
Setting up Verlet run ...
  Unit style  : metal
  Current step: 0
  Time step   : 0.002
Step Lx Pxx Pyy Pzz Temp COM1x[1] COM1x[2] COM1x[3] COM2x[1] COM2x[2] COM2x[3] COM3x[1] COM3x[2] COM3x[3] COM4x[1] COM4x[2] COM4x[3] COM5x[1] COM5x[2] COM5x[3] COMall[1 COMall[2 COMall[3
0    421.52533     352.7493      329.254   -131.25043     299.7746    1.3213066   -1.0141144   -19.568958   -207.68516  -0.93573508   -19.679431    1.3233985   -1.1960322     -9.71368   -207.64627  -0.89898153   -9.5799462    197.59566  -0.93386616   -19.668523    -1.014944   -1.0132149   -418.50717
Averages over the last 26 of 51 rows, steps 2500 to 5000:
Lx Pxx Pyy Pzz Temp COM1x[1] COM1x[2] COM1x[3] COM2x[1] COM2x[2] COM2x[3] COM3x[1] COM3x[2] COM3x[3] COM4x[1] COM4x[2] COM4x[3] COM5x[1] COM5x[2] COM5x[3] COMall[1 COMall[2 COMall[3
421.525 1388.83 1341.98 747.252 322.778 1.26461 -1.04984 -19.2945 -207.746 -1.01742 -19.6282 1.25492 -1.18556 -9.28882 -207.754 -1.0253 -9.45782 197.638 -0.997921 -19.6351 -1.01218 -1.01778 -418.496
Loop time of 30.751 on 512 procs for 5000 steps with 346911 atoms

variable  com1_x equal "c_COM1x[1]"
variable  com1_y equal "c_COM1x[2]"
variable  com1_z equal "c_COM1x[3]"
variable  com2_x equal "c_COM2x[1]"
variable  com2_y equal "c_COM2x[2]"
variable  com2_z equal "c_COM2x[3]"
variable  com3_x equal "c_COM3x[1]"
variable  com3_y equal "c_COM3x[2]"
variable  com3_z equal "c_COM3x[3]"
variable  com4_x equal "c_COM4x[1]"
variable  com4_y equal "c_COM4x[2]"
variable  com4_z equal "c_COM4x[3]"
variable  com5_x equal "c_COM5x[1]"
variable  com5_y equal "c_COM5x[2]"
variable  com5_z equal "c_COM5x[3]"
variable  comall_x equal "c_COMall[1]"
variable  comall_y equal "c_COMall[2]"
variable  comall_z equal "c_COMall[3]"

#-------------------------- Wave Propagation -------------------------
unfix        3temp
run          1000000
Setting up Verlet run ...
  Unit style  : metal
  Current step: 5000
  Time step   : 0.002
Step Lx Pxx Pyy Pzz Temp COM1x[1] COM1x[2] COM1x[3] COM2x[1] COM2x[2] COM2x[3] COM3x[1] COM3x[2] COM3x[3] COM4x[1] COM4x[2] COM4x[3] COM5x[1] COM5x[2] COM5x[3] COMall[1 COMall[2 COMall[3
5000    421.52533    1701.0959     1593.726    878.92239    331.34234    1.3416827  -0.94168206   -19.229586    -207.7735   -1.1046446   -19.418281    1.3481196   -1.0876012   -9.1291059   -207.74716   -1.1614058   -9.2733353    197.62543   -1.1257236   -19.364207    -1.012372   -1.0189998   -418.50457
Averages over the last 5001 of 10001 rows, steps 505000 to 1005000:
Lx Pxx Pyy Pzz Temp COM1x[1] COM1x[2] COM1x[3] COM2x[1] COM2x[2] COM2x[3] COM3x[1] COM3x[2] COM3x[3] COM4x[1] COM4x[2] COM4x[3] COM5x[1] COM5x[2] COM5x[3] COMall[1 COMall[2 COMall[3
421.525 1209.5 1187.94 -6.46129 331.639 -0.136819 4.17639 -38.9699 -209.068 4.2216 -39.0345 -0.144664 4.01448 -29.0858 -209.068 4.22147 -28.8678 196.244 4.22211 -39.0352 -2.35734 4.22151 -438.529
Loop time of 5802.94 on 512 procs for 1000000 steps with 346911 atoms
