fission-0183
fission-0183
fission-0183
fission-0183
fission-0183
fission-0183
fission-0183
fission-0183
fission-0183
fission-0183
fission-0183
fission-0183
fission-0183
fission-0183
fission-0183
fission-0183
fission-0183
fission-0183
fission-0183
fission-0183
fission-0183
fission-0183
fission-0183
fission-0183
fission-0183
fission-0183
fission-0183
fission-0183
fission-0183
fission-0183
fission-0183
fission-0183
fission-0179
fission-0179
fission-0179
fission-0179
fission-0179
fission-0179
fission-0179
fission-0179
fission-0179
fission-0179
fission-0179
fission-0179
fission-0179
fission-0179
fission-0179
fission-0179
fission-0179
fission-0179
fission-0179
fission-0179
fission-0179
fission-0179
fission-0179
fission-0179
fission-0179
fission-0179
fission-0179
fission-0179
fission-0179
fission-0179
fission-0179
fission-0179
fission-0188
fission-0188
fission-0188
fission-0188
fission-0188
fission-0188
fission-0188
fission-0188
fission-0188
fission-0188
fission-0188
fission-0188
fission-0188
fission-0188
fission-0188
fission-0188
fission-0188
fission-0188
fission-0188
fission-0188
fission-0188
fission-0188
fission-0188
fission-0188
fission-0188
fission-0188
fission-0188
fission-0188
fission-0188
fission-0188
fission-0188
fission-0188
fission-0195
fission-0195
fission-0195
fission-0195
fission-0195
fission-0195
fission-0195
fission-0195
fission-0195
fission-0195
fission-0195
fission-0195
fission-0195
fission-0195
fission-0195
fission-0195
fission-0195
fission-0195
fission-0195
fission-0195
fission-0195
fission-0195
fission-0195
fission-0195
fission-0195
fission-0195
fission-0195
fission-0195
fission-0195
fission-0195
fission-0195
fission-0195
fission-0172
fission-0172
fission-0172
fission-0172
fission-0172
fission-0172
fission-0172
fission-0172
fission-0172
fission-0172
fission-0172
fission-0172
fission-0172
fission-0172
fission-0172
fission-0172
fission-0172
fission-0172
fission-0172
fission-0172
fission-0172
fission-0172
fission-0172
fission-0172
fission-0172
fission-0172
fission-0172
fission-0172
fission-0172
fission-0172
fission-0172
fission-0172
fission-0190
fission-0190
fission-0190
fission-0190
fission-0190
fission-0190
fission-0190
fission-0190
fission-0190
fission-0190
fission-0190
fission-0190
fission-0190
fission-0190
fission-0190
fission-0190
fission-0190
fission-0190
fission-0190
fission-0190
fission-0190
fission-0190
fission-0190
fission-0190
fission-0190
fission-0190
fission-0190
fission-0190
fission-0190
fission-0190
fission-0190
fission-0190
fission-0173
fission-0173
fission-0173
fission-0173
fission-0173
fission-0173
fission-0173
fission-0173
fission-0173
fission-0173
fission-0173
fission-0173
fission-0173
fission-0173
fission-0173
fission-0173
fission-0173
fission-0173
fission-0173
fission-0173
fission-0173
fission-0173
fission-0173
fission-0173
fission-0173
fission-0173
fission-0173
fission-0173
fission-0173
fission-0173
fission-0173
fission-0173
fission-0171
fission-0171
fission-0171
fission-0171
fission-0171
fission-0171
fission-0171
fission-0171
fission-0171
fission-0171
fission-0171
fission-0171
fission-0171
fission-0171
fission-0171
fission-0171
fission-0171
fission-0171
fission-0171
fission-0171
fission-0171
fission-0171
fission-0171
fission-0171
fission-0171
fission-0171
fission-0171
fission-0171
fission-0171
fission-0171
fission-0171
fission-0171
fission-0180
fission-0180
fission-0180
fission-0180
fission-0180
fission-0180
fission-0180
fission-0180
fission-0180
fission-0180
fission-0180
fission-0180
fission-0180
fission-0180
fission-0180
fission-0180
fission-0180
fission-0180
fission-0180
fission-0180
fission-0180
fission-0180
fission-0180
fission-0180
fission-0180
fission-0180
fission-0180
fission-0180
fission-0180
fission-0180
fission-0180
fission-0180
fission-0181
fission-0181
fission-0181
fission-0181
fission-0181
fission-0181
fission-0181
fission-0181
fission-0181
fission-0181
fission-0181
fission-0181
fission-0181
fission-0181
fission-0181
fission-0181
fission-0181
fission-0181
fission-0181
fission-0181
fission-0181
fission-0181
fission-0181
fission-0181
fission-0181
fission-0181
fission-0181
fission-0181
fission-0181
fission-0181
fission-0181
fission-0181
fission-0187
fission-0187
fission-0187
fission-0187
fission-0187
fission-0187
fission-0187
fission-0187
fission-0187
fission-0187
fission-0187
fission-0187
fission-0187
fission-0187
fission-0187
fission-0187
fission-0187
fission-0187
fission-0187
fission-0187
fission-0187
fission-0187
fission-0187
fission-0187
fission-0187
fission-0187
fission-0187
fission-0187
fission-0187
fission-0187
fission-0187
fission-0187
fission-0186
fission-0186
fission-0186
fission-0186
fission-0186
fission-0186
fission-0186
fission-0186
fission-0186
fission-0186
fission-0186
fission-0186
fission-0186
fission-0186
fission-0186
fission-0186
fission-0186
fission-0186
fission-0186
fission-0186
fission-0186
fission-0186
fission-0186
fission-0186
fission-0186
fission-0186
fission-0186
fission-0186
fission-0186
fission-0186
fission-0186
fission-0186
fission-0189
fission-0189
fission-0189
fission-0189
fission-0189
fission-0189
fission-0189
fission-0189
fission-0189
fission-0189
fission-0189
fission-0189
fission-0189
fission-0189
fission-0189
fission-0189
fission-0189
fission-0189
fission-0189
fission-0189
fission-0189
fission-0189
fission-0189
fission-0189
fission-0189
fission-0189
fission-0189
fission-0189
fission-0189
fission-0189
fission-0189
fission-0189
fission-0194
fission-0194
fission-0194
fission-0194
fission-0194
fission-0194
fission-0194
fission-0194
fission-0194
fission-0194
fission-0194
fission-0194
fission-0194
fission-0194
fission-0194
fission-0194
fission-0194
fission-0194
fission-0194
fission-0194
fission-0194
fission-0194
fission-0194
fission-0194
fission-0194
fission-0194
fission-0194
fission-0194
fission-0194
fission-0194
fission-0194
fission-0194
fission-0170
fission-0170
fission-0170
fission-0170
fission-0170
fission-0170
fission-0170
fission-0170
fission-0170
fission-0170
fission-0170
fission-0170
fission-0170
fission-0170
fission-0170
fission-0170
fission-0170
fission-0170
fission-0170
fission-0170
fission-0170
fission-0170
fission-0170
fission-0170
fission-0170
fission-0170
fission-0170
fission-0170
fission-0170
fission-0170
fission-0170
fission-0170
fission-0193
fission-0193
fission-0193
fission-0193
fission-0193
fission-0193
fission-0193
fission-0193
fission-0193
fission-0193
fission-0193
fission-0193
fission-0193
fission-0193
fission-0193
fission-0193
fission-0193
fission-0193
fission-0193
fission-0193
fission-0193
fission-0193
fission-0193
fission-0193
fission-0193
fission-0193
fission-0193
fission-0193
fission-0193
fission-0193
fission-0193
fission-0193

The following PBS extra args (PBS_EXTRA_ARGS) will be used: -P ldrd
The following lammps extra args (LAMMPS_EXTRA_ARGS) will be used:
LAMMPS (16 Feb 2016)
#log		log.c
units           metal
dimension       3
boundary        p p p
atom_style      atomic
shell         mkdir  cfg
shell         mkdir  dump

# ----------------------- ATOM DEFINITION & Force Field -------------
# ----------------------- ATOM DEFINITION ----------------------------
lattice         fcc 4.024845358 #origin 0.0 0.0 0.0 orient x 1 -1 0 orient y 1 1 -2 orient z 1 1 1
Lattice spacing in x,y,z = 4.02485 4.02485 4.02485
variable        Lx equal 52
variable        Ly equal 2
variable        Lz equal 208
variable        boxLZ equal 218
region          SYSTEM block -52 52 -2 2 -208 0 units lattice
region          BOX block -52 52 -2 2 -218 5 units lattice
create_box      1 BOX
Created orthogonal box = (-209.292 -8.04969 -877.416) to (209.292 8.04969 20.1242)
create_atoms    1 region SYSTEM
Created 346944 atoms

delete_atoms     porosity BOX 0.0001 5248    ##random seed <RAND1>
Deleted 40 atoms, new total = 346904

#---------------------------------------------------------------------------------
pair_style      eam/alloy
pair_coeff  	  * * Al_wkg_MSMSE_2009.set Al

#----------------------------------------------------------------------------------
velocity       all create 300.0 25582 mom yes rot yes dist gaussian         ##random seed <RAND2>

fix             1 all npt temp 300 300 0.1 iso 0.0 0.0 2
run      10000
  1 neighbor list requests
  update every 1 steps, delay 10 steps, check yes
Setting up Verlet run ...
  Unit style  : metal
  Current step: 0
  Time step   : 0.001
Step Temp E_pair E_mol TotEng Press Volume
0          300   -917101.92            0    -903649.7    2146.9316    6048473.6
Loop time of 62.7642 on 512 procs for 10000 steps with 346904 atoms

unfix 1

fix            2 all nvt temp 300.0 300.0 0.1

run      10000
Setting up Verlet run ...
  Unit style  : metal
  Current step: 10000
  Time step   : 0.001
Step Temp E_pair E_mol TotEng Press
10000     299.4162   -903000.47            0   -889574.43   -18.442107
Loop time of 60.5124 on 512 procs for 10000 steps with 346904 atoms

reset_timestep 0
unfix    2
#---------------------- DEFINE Laser GERION and GROUP ----------------
region       R1  block -75  75  INF  INF  INF  5  units box
group        G1 region R1
123511 atoms in group G1
group        G2 subtract all G1
223393 atoms in group G2

#define     temperature/pressure calculation  group
variable    x1atom atom "x>=0  &&  x<4 &&  z>-40 && z<1"     ##NEW!!!!!!!!!!!!
variable    x2atom atom "x>=-209.292  &&  x<-205.292 &&  z>-40 && z<1"
variable    x3atom atom "x>=0  &&  x<4 &&  z>-20 && z<1"
variable    x4atom atom "x>=-209.292  &&  x<-205.292 &&  z>-20 && z<1"
variable    x5atom atom "x>=196  &&  x<200 &&  z>-40 && z<1"

group       x1atom variable x1atom
146 atoms in group x1atom
group       x2atom variable x2atom
160 atoms in group x2atom
group       x3atom variable x3atom
68 atoms in group x3atom
group       x4atom variable x4atom
80 atoms in group x4atom
group       x5atom variable x5atom
160 atoms in group x5atom

compute      COM1x x1atom com
compute      COM2x x2atom com
compute      COM3x x3atom com
compute      COM4x x4atom com
compute      COM5x x5atom com

compute      COMall all com

#Temperature profile
#variable      Tprofile atom 300*(1+(step/5000)*2.5*exp(z/40))
variable      Tprofile atom 300*(1+(step/5000)*2.5*exp(z/75))

# ------------------------- SETTINGS ---------------------------------
thermo          100
thermo_style    custom step lx pxx pyy pzz temp c_COM1x[1] c_COM1x[2] c_COM1x[3] c_COM2x[1] c_COM2x[2] c_COM2x[3] c_COM3x[1] c_COM3x[2] c_COM3x[3] c_COM4x[1] c_COM4x[2] c_COM4x[3]  c_COM5x[1] c_COM5x[2] c_COM5x[3] c_COMall[1] c_COMall[2] c_COMall[3]

timestep       0.002

compute dispall all displace/atom
# ---------------- Run Laser Material Interaction --------------------
#dump          1 all custom 1000 dump/z1dump.atom id type x y z c_dispall[1]  c_dispall[2]  c_dispall[3] c_dispall[4]
#dump          2 all cfg 100 cfg/*.cfg mass type xs ys zs
#dump_modify   2 element Al

#relax for 2 PS
#fix           1 all nvt temp 300.0 300.0 0.1
#run  1000
#unfix         1

fix           1  all nve
fix           3temp  G1  langevin  v_Tprofile  0  0.1  378411   #TEST ALL
run           5000
Setting up Verlet run ...
  Unit style  : metal
  Current step: 0
  Time step   : 0.002
Step Lx Pxx Pyy Pzz Temp COM1x[1] COM1x[2] COM1x[3] COM2x[1] COM2x[2] COM2x[3] COM3x[1] COM3x[2] COM3x[3] COM4x[1] COM4x[2] COM4x[3] COM5x[1] COM5x[2] COM5x[3] COMall[1 COMall[2 COMall[3
0    421.58039    237.17543    192.13623   -132.13119    299.21612    1.9877779  -0.73134525   -20.583167   -207.71646  -0.82694549   -19.683026    1.9750337  -0.72440444   -9.6193219   -207.69047  -0.81767643   -9.5580014    197.67677  -0.86738923   -19.675742   -1.0124971   -1.0133618   -418.50793
Averages over the last 26 of 51 rows, steps 2500 to 5000:
Lx Pxx Pyy Pzz Temp COM1x[1] COM1x[2] COM1x[3] COM2x[1] COM2x[2] COM2x[3] COM3x[1] COM3x[2] COM3x[3] COM4x[1] COM4x[2] COM4x[3] COM5x[1] COM5x[2] COM5x[3] COMall[1 COMall[2 COMall[3
421.58 1214.07 1173.12 684.285 322.064 1.94487 -0.830117 -20.2606 -207.806 -0.935747 -19.6581 1.89438 -0.869545 -9.15395 -207.805 -0.936858 -9.48692 197.628 -0.931436 -19.6517 -0.998424 -0.999599 -418.523
Loop time of 31.0242 on 512 procs for 5000 steps with 346904 atoms

variable  com1_x equal "c_COM1x[1]"
variable  com1_y equal "c_COM1x[2]"
variable  com1_z equal "c_COM1x[3]"
variable  com2_x equal "c_COM2x[1]"
variable  com2_y equal "c_COM2x[2]"
variable  com2_z equal "c_COM2x[3]"
variable  com3_x equal "c_COM3x[1]"
variable  com3_y equal "c_COM3x[2]"
variable  com3_z equal "c_COM3x[3]"
variable  com4_x equal "c_COM4x[1]"
variable  com4_y equal "c_COM4x[2]"
variable  com4_z equal "c_COM4x[3]"
variable  com5_x equal "c_COM5x[1]"
variable  com5_y equal "c_COM5x[2]"
variable  com5_z equal "c_COM5x[3]"
variable  comall_x equal "c_COMall[1]"
variable  comall_y equal "c_COMall[2]"
variable  comall_z equal "c_COMall[3]"

#-------------------------- Wave Propagation -------------------------
unfix        3temp
run          1000000
Setting up Verlet run ...
  Unit style  : metal
  Current step: 5000
  Time step   : 0.002
Step Lx Pxx Pyy Pzz Temp COM1x[1] COM1x[2] COM1x[3] COM2x[1] COM2x[2] COM2x[3] COM3x[1] COM3x[2] COM3x[3] COM4x[1] COM4x[2] COM4x[3] COM5x[1] COM5x[2] COM5x[3] COMall[1 COMall[2 COMall[3
5000    421.58039    1571.0824     1470.354    830.70765     330.4521    1.9652768  -0.70047154   -20.136657   -207.90706  -0.94737516   -19.612109    1.9499218  -0.75389632   -8.8634117   -207.90591  -0.96750382   -9.4573598     197.5632  -0.94240567   -19.587469   -1.0116853   -1.0038425   -418.53558
Averages over the last 5001 of 10001 rows, steps 505000 to 1005000:
Lx Pxx Pyy Pzz Temp COM1x[1] COM1x[2] COM1x[3] COM2x[1] COM2x[2] COM2x[3] COM3x[1] COM3x[2] COM3x[3] COM4x[1] COM4x[2] COM4x[3] COM5x[1] COM5x[2] COM5x[3] COMall[1 COMall[2 COMall[3
421.58 1067.72 1045.13 -7.36163 331.046 -16.9838 -3.27561 -36.2269 -226.736 -3.34451 -35.4642 -17.0148 -3.31504 -25.2666 -226.736 -3.34472 -25.2999 178.63 -3.34432 -35.4643 -19.9973 -3.34551 -434.885
Loop time of 5910.69 on 512 procs for 1000000 steps with 346904 atoms
