fission-0224
fission-0224
fission-0224
fission-0224
fission-0224
fission-0224
fission-0224
fission-0224
fission-0224
fission-0224
fission-0224
fission-0224
fission-0224
fission-0224
fission-0224
fission-0224
fission-0224
fission-0224
fission-0224
fission-0224
fission-0224
fission-0224
fission-0224
fission-0224
fission-0224
fission-0224
fission-0224
fission-0224
fission-0224
fission-0224
fission-0224
fission-0224
fission-0278
fission-0278
fission-0278
fission-0278
fission-0278
fission-0278
fission-0278
fission-0278
fission-0278
fission-0278
fission-0278
fission-0278
fission-0278
fission-0278
fission-0278
fission-0278
fission-0278
fission-0278
fission-0278
fission-0278
fission-0278
fission-0278
fission-0278
fission-0278
fission-0278
fission-0278
fission-0278
fission-0278
fission-0278
fission-0278
fission-0278
fission-0278
fission-0244
fission-0244
fission-0244
fission-0244
fission-0244
fission-0244
fission-0244
fission-0244
fission-0244
fission-0244
fission-0244
fission-0244
fission-0244
fission-0244
fission-0244
fission-0244
fission-0244
fission-0244
fission-0244
fission-0244
fission-0244
fission-0244
fission-0244
fission-0244
fission-0244
fission-0244
fission-0244
fission-0244
fission-0244
fission-0244
fission-0244
fission-0244
fission-0107
fission-0107
fission-0107
fission-0107
fission-0107
fission-0107
fission-0107
fission-0107
fission-0107
fission-0107
fission-0107
fission-0107
fission-0107
fission-0107
fission-0107
fission-0107
fission-0107
fission-0107
fission-0107
fission-0107
fission-0107
fission-0107
fission-0107
fission-0107
fission-0107
fission-0107
fission-0107
fission-0107
fission-0107
fission-0107
fission-0107
fission-0107
fission-0269
fission-0269
fission-0269
fission-0269
fission-0269
fission-0269
fission-0269
fission-0269
fission-0269
fission-0269
fission-0269
fission-0269
fission-0269
fission-0269
fission-0269
fission-0269
fission-0269
fission-0269
fission-0269
fission-0269
fission-0269
fission-0269
fission-0269
fission-0269
fission-0269
fission-0269
fission-0269
fission-0269
fission-0269
fission-0269
fission-0269
fission-0269
fission-0225
fission-0225
fission-0225
fission-0225
fission-0225
fission-0225
fission-0225
fission-0225
fission-0225
fission-0225
fission-0225
fission-0225
fission-0225
fission-0225
fission-0225
fission-0225
fission-0225
fission-0225
fission-0225
fission-0225
fission-0225
fission-0225
fission-0225
fission-0225
fission-0225
fission-0225
fission-0225
fission-0225
fission-0225
fission-0225
fission-0225
fission-0225
fission-0229
fission-0229
fission-0229
fission-0229
fission-0229
fission-0229
fission-0229
fission-0229
fission-0229
fission-0229
fission-0229
fission-0229
fission-0229
fission-0229
fission-0229
fission-0229
fission-0229
fission-0229
fission-0229
fission-0229
fission-0229
fission-0229
fission-0229
fission-0229
fission-0229
fission-0229
fission-0229
fission-0229
fission-0229
fission-0229
fission-0229
fission-0229
fission-0231
fission-0231
fission-0231
fission-0231
fission-0231
fission-0231
fission-0231
fission-0231
fission-0231
fission-0231
fission-0231
fission-0231
fission-0231
fission-0231
fission-0231
fission-0231
fission-0231
fission-0231
fission-0231
fission-0231
fission-0231
fission-0231
fission-0231
fission-0231
fission-0231
fission-0231
fission-0231
fission-0231
fission-0231
fission-0231
fission-0231
fission-0231
fission-0305
fission-0305
fission-0305
fission-0305
fission-0305
fission-0305
fission-0305
fission-0305
fission-0305
fission-0305
fission-0305
fission-0305
fission-0305
fission-0305
fission-0305
fission-0305
fission-0305
fission-0305
fission-0305
fission-0305
fission-0305
fission-0305
fission-0305
fission-0305
fission-0305
fission-0305
fission-0305
fission-0305
fission-0305
fission-0305
fission-0305
fission-0305
fission-0356
fission-0356
fission-0356
fission-0356
fission-0356
fission-0356
fission-0356
fission-0356
fission-0356
fission-0356
fission-0356
fission-0356
fission-0356
fission-0356
fission-0356
fission-0356
fission-0356
fission-0356
fission-0356
fission-0356
fission-0356
fission-0356
fission-0356
fission-0356
fission-0356
fission-0356
fission-0356
fission-0356
fission-0356
fission-0356
fission-0356
fission-0356
fission-0268
fission-0268
fission-0268
fission-0268
fission-0268
fission-0268
fission-0268
fission-0268
fission-0268
fission-0268
fission-0268
fission-0268
fission-0268
fission-0268
fission-0268
fission-0268
fission-0268
fission-0268
fission-0268
fission-0268
fission-0268
fission-0268
fission-0268
fission-0268
fission-0268
fission-0268
fission-0268
fission-0268
fission-0268
fission-0268
fission-0268
fission-0268
fission-0071
fission-0071
fission-0071
fission-0071
fission-0071
fission-0071
fission-0071
fission-0071
fission-0071
fission-0071
fission-0071
fission-0071
fission-0071
fission-0071
fission-0071
fission-0071
fission-0071
fission-0071
fission-0071
fission-0071
fission-0071
fission-0071
fission-0071
fission-0071
fission-0071
fission-0071
fission-0071
fission-0071
fission-0071
fission-0071
fission-0071
fission-0071
fission-0066
fission-0066
fission-0066
fission-0066
fission-0066
fission-0066
fission-0066
fission-0066
fission-0066
fission-0066
fission-0066
fission-0066
fission-0066
fission-0066
fission-0066
fission-0066
fission-0066
fission-0066
fission-0066
fission-0066
fission-0066
fission-0066
fission-0066
fission-0066
fission-0066
fission-0066
fission-0066
fission-0066
fission-0066
fission-0066
fission-0066
fission-0066
fission-0165
fission-0165
fission-0165
fission-0165
fission-0165
fission-0165
fission-0165
fission-0165
fission-0165
fission-0165
fission-0165
fission-0165
fission-0165
fission-0165
fission-0165
fission-0165
fission-0165
fission-0165
fission-0165
fission-0165
fission-0165
fission-0165
fission-0165
fission-0165
fission-0165
fission-0165
fission-0165
fission-0165
fission-0165
fission-0165
fission-0165
fission-0165
fission-0160
fission-0160
fission-0160
fission-0160
fission-0160
fission-0160
fission-0160
fission-0160
fission-0160
fission-0160
fission-0160
fission-0160
fission-0160
fission-0160
fission-0160
fission-0160
fission-0160
fission-0160
fission-0160
fission-0160
fission-0160
fission-0160
fission-0160
fission-0160
fission-0160
fission-0160
fission-0160
fission-0160
fission-0160
fission-0160
fission-0160
fission-0160
fission-0034
fission-0034
fission-0034
fission-0034
fission-0034
fission-0034
fission-0034
fission-0034
fission-0034
fission-0034
fission-0034
fission-0034
fission-0034
fission-0034
fission-0034
fission-0034
fission-0034
fission-0034
fission-0034
fission-0034
fission-0034
fission-0034
fission-0034
fission-0034
fission-0034
fission-0034
fission-0034
fission-0034
fission-0034
fission-0034
fission-0034
fission-0034

The following PBS extra args (PBS_EXTRA_ARGS) will be used: -P ldrd
The following lammps extra args (LAMMPS_EXTRA_ARGS) will be used:
LAMMPS (16 Feb 2016)
#log		log.c
units           metal
dimension       3
boundary        p p p
atom_style      atomic
shell         mkdir  cfg
shell         mkdir  dump

# ----------------------- ATOM DEFINITION & Force Field -------------
# ----------------------- ATOM DEFINITION ----------------------------
lattice         fcc 4.024845358 #origin 0.0 0.0 0.0 orient x 1 -1 0 orient y 1 1 -2 orient z 1 1 1
Lattice spacing in x,y,z = 4.02485 4.02485 4.02485
variable        Lx equal 52
variable        Ly equal 2
variable        Lz equal 208
variable        boxLZ equal 218
region          SYSTEM block -52 52 -2 2 -208 0 units lattice
region          BOX block -52 52 -2 2 -218 5 units lattice
create_box      1 BOX
Created orthogonal box = (-209.292 -8.04969 -877.416) to (209.292 8.04969 20.1242)
create_atoms    1 region SYSTEM
Created 346944 atoms

delete_atoms     porosity BOX 0.0001 22725    ##random seed <RAND1>
Deleted 38 atoms, new total = 346906

#---------------------------------------------------------------------------------
pair_style      eam/alloy
pair_coeff  	  * * Al_wkg_MSMSE_2009.set Al

#----------------------------------------------------------------------------------
velocity       all create 300.0 12664 mom yes rot yes dist gaussian         ##random seed <RAND2>

fix             1 all npt temp 300 300 0.1 iso 0.0 0.0 2
run      10000
  1 neighbor list requests
  update every 1 steps, delay 10 steps, check yes
Setting up Verlet run ...
  Unit style  : metal
  Current step: 0
  Time step   : 0.001
Step Temp E_pair E_mol TotEng Press Volume
0          300   -917108.76            0   -903656.47     2148.601    6048473.6
Loop time of 62.5679 on 512 procs for 10000 steps with 346906 atoms

unfix 1

fix            2 all nvt temp 300.0 300.0 0.1

run      10000
Setting up Verlet run ...
  Unit style  : metal
  Current step: 10000
  Time step   : 0.001
Step Temp E_pair E_mol TotEng Press
10000    300.04843   -903037.96            0   -889583.49   -13.171385
Loop time of 61.5757 on 512 procs for 10000 steps with 346906 atoms

reset_timestep 0
unfix    2
#---------------------- DEFINE Laser GERION and GROUP ----------------
region       R1  block -75  75  INF  INF  INF  5  units box
group        G1 region R1
123446 atoms in group G1
group        G2 subtract all G1
223460 atoms in group G2

#define     temperature/pressure calculation  group
variable    x1atom atom "x>=0  &&  x<4 &&  z>-40 && z<1"     ##NEW!!!!!!!!!!!!
variable    x2atom atom "x>=-209.292  &&  x<-205.292 &&  z>-40 && z<1"
variable    x3atom atom "x>=0  &&  x<4 &&  z>-20 && z<1"
variable    x4atom atom "x>=-209.292  &&  x<-205.292 &&  z>-20 && z<1"
variable    x5atom atom "x>=196  &&  x<200 &&  z>-40 && z<1"

group       x1atom variable x1atom
146 atoms in group x1atom
group       x2atom variable x2atom
160 atoms in group x2atom
group       x3atom variable x3atom
78 atoms in group x3atom
group       x4atom variable x4atom
80 atoms in group x4atom
group       x5atom variable x5atom
160 atoms in group x5atom

compute      COM1x x1atom com
compute      COM2x x2atom com
compute      COM3x x3atom com
compute      COM4x x4atom com
compute      COM5x x5atom com

compute      COMall all com

#Temperature profile
#variable      Tprofile atom 300*(1+(step/5000)*2.5*exp(z/40))
variable      Tprofile atom 300*(1+(step/5000)*2.5*exp(z/75))

# ------------------------- SETTINGS ---------------------------------
thermo          100
thermo_style    custom step lx pxx pyy pzz temp c_COM1x[1] c_COM1x[2] c_COM1x[3] c_COM2x[1] c_COM2x[2] c_COM2x[3] c_COM3x[1] c_COM3x[2] c_COM3x[3] c_COM4x[1] c_COM4x[2] c_COM4x[3]  c_COM5x[1] c_COM5x[2] c_COM5x[3] c_COMall[1] c_COMall[2] c_COMall[3]

timestep       0.002

compute dispall all displace/atom
# ---------------- Run Laser Material Interaction --------------------
#dump          1 all custom 1000 dump/z1dump.atom id type x y z c_dispall[1]  c_dispall[2]  c_dispall[3] c_dispall[4]
#dump          2 all cfg 100 cfg/*.cfg mass type xs ys zs
#dump_modify   2 element Al

#relax for 2 PS
#fix           1 all nvt temp 300.0 300.0 0.1
#run  1000
#unfix         1

fix           1  all nve
fix           3temp  G1  langevin  v_Tprofile  0  0.1  378411   #TEST ALL
run           5000
Setting up Verlet run ...
  Unit style  : metal
  Current step: 0
  Time step   : 0.002
Step Lx Pxx Pyy Pzz Temp COM1x[1] COM1x[2] COM1x[3] COM2x[1] COM2x[2] COM2x[3] COM3x[1] COM3x[2] COM3x[3] COM4x[1] COM4x[2] COM4x[3] COM5x[1] COM5x[2] COM5x[3] COMall[1 COMall[2 COMall[3
0    421.70553   -125.62895    -143.9297   -173.56402    299.75375    1.5141072   -1.1229188   -18.887037     -207.785  -0.93803544   -19.919515    1.3476577  -0.93491693   -9.8085055   -207.81596  -0.93663166   -9.7935785    197.68629  -0.98916763   -19.863729   -1.0134055   -1.0136334   -418.51081
Averages over the last 26 of 51 rows, steps 2500 to 5000:
Lx Pxx Pyy Pzz Temp COM1x[1] COM1x[2] COM1x[3] COM2x[1] COM2x[2] COM2x[3] COM3x[1] COM3x[2] COM3x[3] COM4x[1] COM4x[2] COM4x[3] COM5x[1] COM5x[2] COM5x[3] COMall[1 COMall[2 COMall[3
421.706 892.337 859.743 623.061 322.066 1.45166 -1.12517 -18.637 -207.801 -0.950849 -19.8387 1.26298 -0.877324 -9.43207 -207.81 -0.950336 -9.66931 197.757 -0.942311 -19.8413 -1.0033 -1.00877 -418.512
Loop time of 31.5419 on 512 procs for 5000 steps with 346906 atoms

variable  com1_x equal "c_COM1x[1]"
variable  com1_y equal "c_COM1x[2]"
variable  com1_z equal "c_COM1x[3]"
variable  com2_x equal "c_COM2x[1]"
variable  com2_y equal "c_COM2x[2]"
variable  com2_z equal "c_COM2x[3]"
variable  com3_x equal "c_COM3x[1]"
variable  com3_y equal "c_COM3x[2]"
variable  com3_z equal "c_COM3x[3]"
variable  com4_x equal "c_COM4x[1]"
variable  com4_y equal "c_COM4x[2]"
variable  com4_z equal "c_COM4x[3]"
variable  com5_x equal "c_COM5x[1]"
variable  com5_y equal "c_COM5x[2]"
variable  com5_z equal "c_COM5x[3]"
variable  comall_x equal "c_COMall[1]"
variable  comall_y equal "c_COMall[2]"
variable  comall_z equal "c_COMall[3]"

#-------------------------- Wave Propagation -------------------------
unfix        3temp
run          1000000
Setting up Verlet run ...
  Unit style  : metal
  Current step: 5000
  Time step   : 0.002
Step Lx Pxx Pyy Pzz Temp COM1x[1] COM1x[2] COM1x[3] COM2x[1] COM2x[2] COM2x[3] COM3x[1] COM3x[2] COM3x[3] COM4x[1] COM4x[2] COM4x[3] COM5x[1] COM5x[2] COM5x[3] COMall[1 COMall[2 COMall[3
5000    421.70553    1194.4543    1134.8164    826.51714    330.95932    1.4157951   -1.0230068   -18.456468    -207.8169   -0.9194716   -19.707262     1.248578  -0.80581272   -9.2068043   -207.80906  -0.91051949   -9.5389967    197.73948   -1.0192442   -19.738525   -1.0135998   -1.0171651   -418.51273
Averages over the last 5001 of 10001 rows, steps 505000 to 1005000:
Lx Pxx Pyy Pzz Temp COM1x[1] COM1x[2] COM1x[3] COM2x[1] COM2x[2] COM2x[3] COM3x[1] COM3x[2] COM3x[3] COM4x[1] COM4x[2] COM4x[3] COM5x[1] COM5x[2] COM5x[3] COMall[1 COMall[2 COMall[3
421.706 779.753 757.06 -6.8784 330.855 -23.5287 1.94764 -27.6863 -232.786 2.12817 -28.5019 -23.725 2.1283 -18.6068 -232.786 2.12795 -18.3402 172.699 2.12804 -28.5021 -25.9875 2.12944 -427.805
Loop time of 5867.19 on 512 procs for 1000000 steps with 346906 atoms
