fission-0166
fission-0166
fission-0166
fission-0166
fission-0166
fission-0166
fission-0166
fission-0166
fission-0166
fission-0166
fission-0166
fission-0166
fission-0166
fission-0166
fission-0166
fission-0166
fission-0166
fission-0166
fission-0166
fission-0166
fission-0166
fission-0166
fission-0166
fission-0166
fission-0166
fission-0166
fission-0166
fission-0166
fission-0166
fission-0166
fission-0166
fission-0166
fission-0156
fission-0156
fission-0156
fission-0156
fission-0156
fission-0156
fission-0156
fission-0156
fission-0156
fission-0156
fission-0156
fission-0156
fission-0156
fission-0156
fission-0156
fission-0156
fission-0156
fission-0156
fission-0156
fission-0156
fission-0156
fission-0156
fission-0156
fission-0156
fission-0156
fission-0156
fission-0156
fission-0156
fission-0156
fission-0156
fission-0156
fission-0156
fission-0159
fission-0159
fission-0159
fission-0159
fission-0159
fission-0159
fission-0159
fission-0159
fission-0159
fission-0159
fission-0159
fission-0159
fission-0159
fission-0159
fission-0159
fission-0159
fission-0159
fission-0159
fission-0159
fission-0159
fission-0159
fission-0159
fission-0159
fission-0159
fission-0159
fission-0159
fission-0159
fission-0159
fission-0159
fission-0159
fission-0159
fission-0159
fission-0155
fission-0155
fission-0155
fission-0155
fission-0155
fission-0155
fission-0155
fission-0155
fission-0155
fission-0155
fission-0155
fission-0155
fission-0155
fission-0155
fission-0155
fission-0155
fission-0155
fission-0155
fission-0155
fission-0155
fission-0155
fission-0155
fission-0155
fission-0155
fission-0155
fission-0155
fission-0155
fission-0155
fission-0155
fission-0155
fission-0155
fission-0155
fission-0146
fission-0146
fission-0146
fission-0146
fission-0146
fission-0146
fission-0146
fission-0146
fission-0146
fission-0146
fission-0146
fission-0146
fission-0146
fission-0146
fission-0146
fission-0146
fission-0146
fission-0146
fission-0146
fission-0146
fission-0146
fission-0146
fission-0146
fission-0146
fission-0146
fission-0146
fission-0146
fission-0146
fission-0146
fission-0146
fission-0146
fission-0146
fission-0148
fission-0148
fission-0148
fission-0148
fission-0148
fission-0148
fission-0148
fission-0148
fission-0148
fission-0148
fission-0148
fission-0148
fission-0148
fission-0148
fission-0148
fission-0148
fission-0148
fission-0148
fission-0148
fission-0148
fission-0148
fission-0148
fission-0148
fission-0148
fission-0148
fission-0148
fission-0148
fission-0148
fission-0148
fission-0148
fission-0148
fission-0148
fission-0149
fission-0149
fission-0149
fission-0149
fission-0149
fission-0149
fission-0149
fission-0149
fission-0149
fission-0149
fission-0149
fission-0149
fission-0149
fission-0149
fission-0149
fission-0149
fission-0149
fission-0149
fission-0149
fission-0149
fission-0149
fission-0149
fission-0149
fission-0149
fission-0149
fission-0149
fission-0149
fission-0149
fission-0149
fission-0149
fission-0149
fission-0149
fission-0151
fission-0151
fission-0151
fission-0151
fission-0151
fission-0151
fission-0151
fission-0151
fission-0151
fission-0151
fission-0151
fission-0151
fission-0151
fission-0151
fission-0151
fission-0151
fission-0151
fission-0151
fission-0151
fission-0151
fission-0151
fission-0151
fission-0151
fission-0151
fission-0151
fission-0151
fission-0151
fission-0151
fission-0151
fission-0151
fission-0151
fission-0151
fission-0154
fission-0154
fission-0154
fission-0154
fission-0154
fission-0154
fission-0154
fission-0154
fission-0154
fission-0154
fission-0154
fission-0154
fission-0154
fission-0154
fission-0154
fission-0154
fission-0154
fission-0154
fission-0154
fission-0154
fission-0154
fission-0154
fission-0154
fission-0154
fission-0154
fission-0154
fission-0154
fission-0154
fission-0154
fission-0154
fission-0154
fission-0154
fission-0153
fission-0153
fission-0153
fission-0153
fission-0153
fission-0153
fission-0153
fission-0153
fission-0153
fission-0153
fission-0153
fission-0153
fission-0153
fission-0153
fission-0153
fission-0153
fission-0153
fission-0153
fission-0153
fission-0153
fission-0153
fission-0153
fission-0153
fission-0153
fission-0153
fission-0153
fission-0153
fission-0153
fission-0153
fission-0153
fission-0153
fission-0153
fission-0152
fission-0152
fission-0152
fission-0152
fission-0152
fission-0152
fission-0152
fission-0152
fission-0152
fission-0152
fission-0152
fission-0152
fission-0152
fission-0152
fission-0152
fission-0152
fission-0152
fission-0152
fission-0152
fission-0152
fission-0152
fission-0152
fission-0152
fission-0152
fission-0152
fission-0152
fission-0152
fission-0152
fission-0152
fission-0152
fission-0152
fission-0152
fission-0157
fission-0157
fission-0157
fission-0157
fission-0157
fission-0157
fission-0157
fission-0157
fission-0157
fission-0157
fission-0157
fission-0157
fission-0157
fission-0157
fission-0157
fission-0157
fission-0157
fission-0157
fission-0157
fission-0157
fission-0157
fission-0157
fission-0157
fission-0157
fission-0157
fission-0157
fission-0157
fission-0157
fission-0157
fission-0157
fission-0157
fission-0157
fission-0141
fission-0141
fission-0141
fission-0141
fission-0141
fission-0141
fission-0141
fission-0141
fission-0141
fission-0141
fission-0141
fission-0141
fission-0141
fission-0141
fission-0141
fission-0141
fission-0141
fission-0141
fission-0141
fission-0141
fission-0141
fission-0141
fission-0141
fission-0141
fission-0141
fission-0141
fission-0141
fission-0141
fission-0141
fission-0141
fission-0141
fission-0141
fission-0163
fission-0163
fission-0163
fission-0163
fission-0163
fission-0163
fission-0163
fission-0163
fission-0163
fission-0163
fission-0163
fission-0163
fission-0163
fission-0163
fission-0163
fission-0163
fission-0163
fission-0163
fission-0163
fission-0163
fission-0163
fission-0163
fission-0163
fission-0163
fission-0163
fission-0163
fission-0163
fission-0163
fission-0163
fission-0163
fission-0163
fission-0163
fission-0147
fission-0147
fission-0147
fission-0147
fission-0147
fission-0147
fission-0147
fission-0147
fission-0147
fission-0147
fission-0147
fission-0147
fission-0147
fission-0147
fission-0147
fission-0147
fission-0147
fission-0147
fission-0147
fission-0147
fission-0147
fission-0147
fission-0147
fission-0147
fission-0147
fission-0147
fission-0147
fission-0147
fission-0147
fission-0147
fission-0147
fission-0147
fission-0162
fission-0162
fission-0162
fission-0162
fission-0162
fission-0162
fission-0162
fission-0162
fission-0162
fission-0162
fission-0162
fission-0162
fission-0162
fission-0162
fission-0162
fission-0162
fission-0162
fission-0162
fission-0162
fission-0162
fission-0162
fission-0162
fission-0162
fission-0162
fission-0162
fission-0162
fission-0162
fission-0162
fission-0162
fission-0162
fission-0162
fission-0162

The following PBS extra args (PBS_EXTRA_ARGS) will be used: -P ldrd
The following lammps extra args (LAMMPS_EXTRA_ARGS) will be used:
LAMMPS (16 Feb 2016)
#log		log.c
units           metal
dimension       3
boundary        p p p
atom_style      atomic
shell         mkdir  cfg
shell         mkdir  dump

# ----------------------- ATOM DEFINITION & Force Field -------------
# ----------------------- ATOM DEFINITION ----------------------------
lattice         fcc 4.024845358 #origin 0.0 0.0 0.0 orient x 1 -1 0 orient y 1 1 -2 orient z 1 1 1
Lattice spacing in x,y,z = 4.02485 4.02485 4.02485
variable        Lx equal 52
variable        Ly equal 2
variable        Lz equal 208
variable        boxLZ equal 218
region          SYSTEM block -52 52 -2 2 -208 0 units lattice
region          BOX block -52 52 -2 2 -218 5 units lattice
create_box      1 BOX
Created orthogonal box = (-209.292 -8.04969 -877.416) to (209.292 8.04969 20.1242)
create_atoms    1 region SYSTEM
Created 346944 atoms

delete_atoms     porosity BOX 0.002 14528    ##random seed <RAND1>
Deleted 666 atoms, new total = 346278

#---------------------------------------------------------------------------------
pair_style      eam/alloy
pair_coeff  	  * * Al_wkg_MSMSE_2009.set Al

#----------------------------------------------------------------------------------
velocity       all create 300.0 32710 mom yes rot yes dist gaussian         ##random seed <RAND2>

fix             1 all npt temp 300 300 0.1 iso 0.0 0.0 2
run      10000
  1 neighbor list requests
  update every 1 steps, delay 10 steps, check yes
Setting up Verlet run ...
  Unit style  : metal
  Current step: 0
  Time step   : 0.001
Step Temp E_pair E_mol TotEng Press Volume
0          300   -914958.98            0   -901531.04    1629.0046    6048473.6
Loop time of 59.7703 on 512 procs for 10000 steps with 346278 atoms

unfix 1

fix            2 all nvt temp 300.0 300.0 0.1

run      10000
Setting up Verlet run ...
  Unit style  : metal
  Current step: 10000
  Time step   : 0.001
Step Temp E_pair E_mol TotEng Press
10000    300.06954   -900965.47            0   -887534.42   -11.617463
Loop time of 58.7291 on 512 procs for 10000 steps with 346278 atoms

reset_timestep 0
unfix    2
#---------------------- DEFINE Laser GERION and GROUP ----------------
region       R1  block -75  75  INF  INF  INF  5  units box
group        G1 region R1
123147 atoms in group G1
group        G2 subtract all G1
223131 atoms in group G2

#define     temperature/pressure calculation  group
variable    x1atom atom "x>=0  &&  x<4 &&  z>-40 && z<1"     ##NEW!!!!!!!!!!!!
variable    x2atom atom "x>=-209.292  &&  x<-205.292 &&  z>-40 && z<1"
variable    x3atom atom "x>=0  &&  x<4 &&  z>-20 && z<1"
variable    x4atom atom "x>=-209.292  &&  x<-205.292 &&  z>-20 && z<1"
variable    x5atom atom "x>=196  &&  x<200 &&  z>-40 && z<1"

group       x1atom variable x1atom
149 atoms in group x1atom
group       x2atom variable x2atom
160 atoms in group x2atom
group       x3atom variable x3atom
76 atoms in group x3atom
group       x4atom variable x4atom
80 atoms in group x4atom
group       x5atom variable x5atom
160 atoms in group x5atom

compute      COM1x x1atom com
compute      COM2x x2atom com
compute      COM3x x3atom com
compute      COM4x x4atom com
compute      COM5x x5atom com

compute      COMall all com

#Temperature profile
#variable      Tprofile atom 300*(1+(step/5000)*2.5*exp(z/40))
variable      Tprofile atom 300*(1+(step/5000)*2.5*exp(z/75))

# ------------------------- SETTINGS ---------------------------------
thermo          100
thermo_style    custom step lx pxx pyy pzz temp c_COM1x[1] c_COM1x[2] c_COM1x[3] c_COM2x[1] c_COM2x[2] c_COM2x[3] c_COM3x[1] c_COM3x[2] c_COM3x[3] c_COM4x[1] c_COM4x[2] c_COM4x[3]  c_COM5x[1] c_COM5x[2] c_COM5x[3] c_COMall[1] c_COMall[2] c_COMall[3]

timestep       0.002

compute dispall all displace/atom
# ---------------- Run Laser Material Interaction --------------------
#dump          1 all custom 1000 dump/z1dump.atom id type x y z c_dispall[1]  c_dispall[2]  c_dispall[3] c_dispall[4]
#dump          2 all cfg 100 cfg/*.cfg mass type xs ys zs
#dump_modify   2 element Al

#relax for 2 PS
#fix           1 all nvt temp 300.0 300.0 0.1
#run  1000
#unfix         1

fix           1  all nve
fix           3temp  G1  langevin  v_Tprofile  0  0.1  378411   #TEST ALL
run           5000
Setting up Verlet run ...
  Unit style  : metal
  Current step: 0
  Time step   : 0.002
Step Lx Pxx Pyy Pzz Temp COM1x[1] COM1x[2] COM1x[3] COM2x[1] COM2x[2] COM2x[3] COM3x[1] COM3x[2] COM3x[3] COM4x[1] COM4x[2] COM4x[3] COM5x[1] COM5x[2] COM5x[3] COMall[1 COMall[2 COMall[3
0    421.50191    140.68606    131.30331   -49.635255    300.24687    1.3605732   -1.2922362   -19.743268   -207.64819   -1.0352918   -19.888524    1.3506392    -1.451758   -9.6477222   -207.66922   -1.0297135   -9.7253333    197.61626  -0.96554458   -19.889102   -1.0108381   -1.0128805   -418.50932
Averages over the last 26 of 51 rows, steps 2500 to 5000:
Lx Pxx Pyy Pzz Temp COM1x[1] COM1x[2] COM1x[3] COM2x[1] COM2x[2] COM2x[3] COM3x[1] COM3x[2] COM3x[3] COM4x[1] COM4x[2] COM4x[3] COM5x[1] COM5x[2] COM5x[3] COMall[1 COMall[2 COMall[3
421.502 1128.73 1075.31 711.911 321.988 1.27486 -1.26249 -19.4105 -207.722 -1.07519 -19.8909 1.24707 -1.39591 -9.11723 -207.728 -1.06806 -9.72464 197.638 -1.06971 -19.8991 -1.02195 -1.02663 -418.547
Loop time of 29.2337 on 512 procs for 5000 steps with 346278 atoms

variable  com1_x equal "c_COM1x[1]"
variable  com1_y equal "c_COM1x[2]"
variable  com1_z equal "c_COM1x[3]"
variable  com2_x equal "c_COM2x[1]"
variable  com2_y equal "c_COM2x[2]"
variable  com2_z equal "c_COM2x[3]"
variable  com3_x equal "c_COM3x[1]"
variable  com3_y equal "c_COM3x[2]"
variable  com3_z equal "c_COM3x[3]"
variable  com4_x equal "c_COM4x[1]"
variable  com4_y equal "c_COM4x[2]"
variable  com4_z equal "c_COM4x[3]"
variable  com5_x equal "c_COM5x[1]"
variable  com5_y equal "c_COM5x[2]"
variable  com5_z equal "c_COM5x[3]"
variable  comall_x equal "c_COMall[1]"
variable  comall_y equal "c_COMall[2]"
variable  comall_z equal "c_COMall[3]"

#-------------------------- Wave Propagation -------------------------
unfix        3temp
run          1000000
Setting up Verlet run ...
  Unit style  : metal
  Current step: 5000
  Time step   : 0.002
Step Lx Pxx Pyy Pzz Temp COM1x[1] COM1x[2] COM1x[3] COM2x[1] COM2x[2] COM2x[3] COM3x[1] COM3x[2] COM3x[3] COM4x[1] COM4x[2] COM4x[3] COM5x[1] COM5x[2] COM5x[3] COMall[1 COMall[2 COMall[3
5000    421.50191    1434.4307    1345.4994    873.26418    329.99186    1.2943678   -1.1089665   -19.218929     -207.641  -0.93763029   -19.897788    1.2767549   -1.2545752    -8.837721   -207.65964  -0.94048636   -9.7314117    197.76205   -0.9862915   -19.799999   -1.0215597   -1.0158332   -418.56392
Averages over the last 5001 of 10001 rows, steps 505000 to 1005000:
Lx Pxx Pyy Pzz Temp COM1x[1] COM1x[2] COM1x[3] COM2x[1] COM2x[2] COM2x[3] COM3x[1] COM3x[2] COM3x[3] COM4x[1] COM4x[2] COM4x[3] COM5x[1] COM5x[2] COM5x[3] COMall[1 COMall[2 COMall[3
421.502 956.225 933.746 -7.27153 330.677 -15.7003 10.3337 -30.6999 -224.681 10.4218 -30.8707 -15.631 10.2355 -20.5361 -224.683 10.4217 -20.706 180.603 10.4215 -30.8762 -17.9759 10.4222 -430.143
Loop time of 5759.48 on 512 procs for 1000000 steps with 346278 atoms
