fission-0265
fission-0265
fission-0265
fission-0265
fission-0265
fission-0265
fission-0265
fission-0265
fission-0265
fission-0265
fission-0265
fission-0265
fission-0265
fission-0265
fission-0265
fission-0265
fission-0265
fission-0265
fission-0265
fission-0265
fission-0265
fission-0265
fission-0265
fission-0265
fission-0265
fission-0265
fission-0265
fission-0265
fission-0265
fission-0265
fission-0265
fission-0265
fission-0271
fission-0271
fission-0271
fission-0271
fission-0271
fission-0271
fission-0271
fission-0271
fission-0271
fission-0271
fission-0271
fission-0271
fission-0271
fission-0271
fission-0271
fission-0271
fission-0271
fission-0271
fission-0271
fission-0271
fission-0271
fission-0271
fission-0271
fission-0271
fission-0271
fission-0271
fission-0271
fission-0271
fission-0271
fission-0271
fission-0271
fission-0271
fission-0252
fission-0252
fission-0252
fission-0252
fission-0252
fission-0252
fission-0252
fission-0252
fission-0252
fission-0252
fission-0252
fission-0252
fission-0252
fission-0252
fission-0252
fission-0252
fission-0252
fission-0252
fission-0252
fission-0252
fission-0252
fission-0252
fission-0252
fission-0252
fission-0252
fission-0252
fission-0252
fission-0252
fission-0252
fission-0252
fission-0252
fission-0252
fission-0266
fission-0266
fission-0266
fission-0266
fission-0266
fission-0266
fission-0266
fission-0266
fission-0266
fission-0266
fission-0266
fission-0266
fission-0266
fission-0266
fission-0266
fission-0266
fission-0266
fission-0266
fission-0266
fission-0266
fission-0266
fission-0266
fission-0266
fission-0266
fission-0266
fission-0266
fission-0266
fission-0266
fission-0266
fission-0266
fission-0266
fission-0266
fission-0273
fission-0273
fission-0273
fission-0273
fission-0273
fission-0273
fission-0273
fission-0273
fission-0273
fission-0273
fission-0273
fission-0273
fission-0273
fission-0273
fission-0273
fission-0273
fission-0273
fission-0273
fission-0273
fission-0273
fission-0273
fission-0273
fission-0273
fission-0273
fission-0273
fission-0273
fission-0273
fission-0273
fission-0273
fission-0273
fission-0273
fission-0273
fission-0267
fission-0267
fission-0267
fission-0267
fission-0267
fission-0267
fission-0267
fission-0267
fission-0267
fission-0267
fission-0267
fission-0267
fission-0267
fission-0267
fission-0267
fission-0267
fission-0267
fission-0267
fission-0267
fission-0267
fission-0267
fission-0267
fission-0267
fission-0267
fission-0267
fission-0267
fission-0267
fission-0267
fission-0267
fission-0267
fission-0267
fission-0267
fission-0272
fission-0272
fission-0272
fission-0272
fission-0272
fission-0272
fission-0272
fission-0272
fission-0272
fission-0272
fission-0272
fission-0272
fission-0272
fission-0272
fission-0272
fission-0272
fission-0272
fission-0272
fission-0272
fission-0272
fission-0272
fission-0272
fission-0272
fission-0272
fission-0272
fission-0272
fission-0272
fission-0272
fission-0272
fission-0272
fission-0272
fission-0272
fission-0274
fission-0274
fission-0274
fission-0274
fission-0274
fission-0274
fission-0274
fission-0274
fission-0274
fission-0274
fission-0274
fission-0274
fission-0274
fission-0274
fission-0274
fission-0274
fission-0274
fission-0274
fission-0274
fission-0274
fission-0274
fission-0274
fission-0274
fission-0274
fission-0274
fission-0274
fission-0274
fission-0274
fission-0274
fission-0274
fission-0274
fission-0274
fission-0275
fission-0275
fission-0275
fission-0275
fission-0275
fission-0275
fission-0275
fission-0275
fission-0275
fission-0275
fission-0275
fission-0275
fission-0275
fission-0275
fission-0275
fission-0275
fission-0275
fission-0275
fission-0275
fission-0275
fission-0275
fission-0275
fission-0275
fission-0275
fission-0275
fission-0275
fission-0275
fission-0275
fission-0275
fission-0275
fission-0275
fission-0275
fission-0276
fission-0276
fission-0276
fission-0276
fission-0276
fission-0276
fission-0276
fission-0276
fission-0276
fission-0276
fission-0276
fission-0276
fission-0276
fission-0276
fission-0276
fission-0276
fission-0276
fission-0276
fission-0276
fission-0276
fission-0276
fission-0276
fission-0276
fission-0276
fission-0276
fission-0276
fission-0276
fission-0276
fission-0276
fission-0276
fission-0276
fission-0276
fission-0279
fission-0279
fission-0279
fission-0279
fission-0279
fission-0279
fission-0279
fission-0279
fission-0279
fission-0279
fission-0279
fission-0279
fission-0279
fission-0279
fission-0279
fission-0279
fission-0279
fission-0279
fission-0279
fission-0279
fission-0279
fission-0279
fission-0279
fission-0279
fission-0279
fission-0279
fission-0279
fission-0279
fission-0279
fission-0279
fission-0279
fission-0279
fission-0256
fission-0256
fission-0256
fission-0256
fission-0256
fission-0256
fission-0256
fission-0256
fission-0256
fission-0256
fission-0256
fission-0256
fission-0256
fission-0256
fission-0256
fission-0256
fission-0256
fission-0256
fission-0256
fission-0256
fission-0256
fission-0256
fission-0256
fission-0256
fission-0256
fission-0256
fission-0256
fission-0256
fission-0256
fission-0256
fission-0256
fission-0256
fission-0262
fission-0262
fission-0262
fission-0262
fission-0262
fission-0262
fission-0262
fission-0262
fission-0262
fission-0262
fission-0262
fission-0262
fission-0262
fission-0262
fission-0262
fission-0262
fission-0262
fission-0262
fission-0262
fission-0262
fission-0262
fission-0262
fission-0262
fission-0262
fission-0262
fission-0262
fission-0262
fission-0262
fission-0262
fission-0262
fission-0262
fission-0262
fission-0260
fission-0260
fission-0260
fission-0260
fission-0260
fission-0260
fission-0260
fission-0260
fission-0260
fission-0260
fission-0260
fission-0260
fission-0260
fission-0260
fission-0260
fission-0260
fission-0260
fission-0260
fission-0260
fission-0260
fission-0260
fission-0260
fission-0260
fission-0260
fission-0260
fission-0260
fission-0260
fission-0260
fission-0260
fission-0260
fission-0260
fission-0260
fission-0253
fission-0253
fission-0253
fission-0253
fission-0253
fission-0253
fission-0253
fission-0253
fission-0253
fission-0253
fission-0253
fission-0253
fission-0253
fission-0253
fission-0253
fission-0253
fission-0253
fission-0253
fission-0253
fission-0253
fission-0253
fission-0253
fission-0253
fission-0253
fission-0253
fission-0253
fission-0253
fission-0253
fission-0253
fission-0253
fission-0253
fission-0253
fission-0254
fission-0254
fission-0254
fission-0254
fission-0254
fission-0254
fission-0254
fission-0254
fission-0254
fission-0254
fission-0254
fission-0254
fission-0254
fission-0254
fission-0254
fission-0254
fission-0254
fission-0254
fission-0254
fission-0254
fission-0254
fission-0254
fission-0254
fission-0254
fission-0254
fission-0254
fission-0254
fission-0254
fission-0254
fission-0254
fission-0254
fission-0254

The following PBS extra args (PBS_EXTRA_ARGS) will be used: -P ldrd
The following lammps extra args (LAMMPS_EXTRA_ARGS) will be used:
LAMMPS (16 Feb 2016)
#log		log.c
units           metal
dimension       3
boundary        p p p
atom_style      atomic
shell         mkdir  cfg
shell         mkdir  dump

# ----------------------- ATOM DEFINITION & Force Field -------------
# ----------------------- ATOM DEFINITION ----------------------------
lattice         fcc 4.024845358 #origin 0.0 0.0 0.0 orient x 1 -1 0 orient y 1 1 -2 orient z 1 1 1
Lattice spacing in x,y,z = 4.02485 4.02485 4.02485
variable        Lx equal 52
variable        Ly equal 2
variable        Lz equal 208
variable        boxLZ equal 218
region          SYSTEM block -52 52 -2 2 -208 0 units lattice
region          BOX block -52 52 -2 2 -218 5 units lattice
create_box      1 BOX
Created orthogonal box = (-209.292 -8.04969 -877.416) to (209.292 8.04969 20.1242)
create_atoms    1 region SYSTEM
Created 346944 atoms

delete_atoms     porosity BOX 0.002 30215    ##random seed <RAND1>
Deleted 686 atoms, new total = 346258

#---------------------------------------------------------------------------------
pair_style      eam/alloy
pair_coeff  	  * * Al_wkg_MSMSE_2009.set Al

#----------------------------------------------------------------------------------
velocity       all create 300.0 29536 mom yes rot yes dist gaussian         ##random seed <RAND2>

fix             1 all npt temp 300 300 0.1 iso 0.0 0.0 2
run      10000
  1 neighbor list requests
  update every 1 steps, delay 10 steps, check yes
Setting up Verlet run ...
  Unit style  : metal
  Current step: 0
  Time step   : 0.001
Step Temp E_pair E_mol TotEng Press Volume
0          300   -914891.53            0   -901464.36    1613.8151    6048473.6
Loop time of 59.867 on 512 procs for 10000 steps with 346258 atoms

unfix 1

fix            2 all nvt temp 300.0 300.0 0.1

run      10000
Setting up Verlet run ...
  Unit style  : metal
  Current step: 10000
  Time step   : 0.001
Step Temp E_pair E_mol TotEng Press
10000    299.64799   -900895.93            0   -887484.52     9.526325
Loop time of 57.8481 on 512 procs for 10000 steps with 346258 atoms

reset_timestep 0
unfix    2
#---------------------- DEFINE Laser GERION and GROUP ----------------
region       R1  block -75  75  INF  INF  INF  5  units box
group        G1 region R1
123463 atoms in group G1
group        G2 subtract all G1
222795 atoms in group G2

#define     temperature/pressure calculation  group
variable    x1atom atom "x>=0  &&  x<4 &&  z>-40 && z<1"     ##NEW!!!!!!!!!!!!
variable    x2atom atom "x>=-209.292  &&  x<-205.292 &&  z>-40 && z<1"
variable    x3atom atom "x>=0  &&  x<4 &&  z>-20 && z<1"
variable    x4atom atom "x>=-209.292  &&  x<-205.292 &&  z>-20 && z<1"
variable    x5atom atom "x>=196  &&  x<200 &&  z>-40 && z<1"

group       x1atom variable x1atom
159 atoms in group x1atom
group       x2atom variable x2atom
160 atoms in group x2atom
group       x3atom variable x3atom
80 atoms in group x3atom
group       x4atom variable x4atom
80 atoms in group x4atom
group       x5atom variable x5atom
158 atoms in group x5atom

compute      COM1x x1atom com
compute      COM2x x2atom com
compute      COM3x x3atom com
compute      COM4x x4atom com
compute      COM5x x5atom com

compute      COMall all com

#Temperature profile
#variable      Tprofile atom 300*(1+(step/5000)*2.5*exp(z/40))
variable      Tprofile atom 300*(1+(step/5000)*2.5*exp(z/75))

# ------------------------- SETTINGS ---------------------------------
thermo          100
thermo_style    custom step lx pxx pyy pzz temp c_COM1x[1] c_COM1x[2] c_COM1x[3] c_COM2x[1] c_COM2x[2] c_COM2x[3] c_COM3x[1] c_COM3x[2] c_COM3x[3] c_COM4x[1] c_COM4x[2] c_COM4x[3]  c_COM5x[1] c_COM5x[2] c_COM5x[3] c_COMall[1] c_COMall[2] c_COMall[3]

timestep       0.002

compute dispall all displace/atom
# ---------------- Run Laser Material Interaction --------------------
#dump          1 all custom 1000 dump/z1dump.atom id type x y z c_dispall[1]  c_dispall[2]  c_dispall[3] c_dispall[4]
#dump          2 all cfg 100 cfg/*.cfg mass type xs ys zs
#dump_modify   2 element Al

#relax for 2 PS
#fix           1 all nvt temp 300.0 300.0 0.1
#run  1000
#unfix         1

fix           1  all nve
fix           3temp  G1  langevin  v_Tprofile  0  0.1  378411   #TEST ALL
run           5000
Setting up Verlet run ...
  Unit style  : metal
  Current step: 0
  Time step   : 0.002
Step Lx Pxx Pyy Pzz Temp COM1x[1] COM1x[2] COM1x[3] COM2x[1] COM2x[2] COM2x[3] COM3x[1] COM3x[2] COM3x[3] COM4x[1] COM4x[2] COM4x[3] COM5x[1] COM5x[2] COM5x[3] COMall[1 COMall[2 COMall[3
0    421.43609    125.94653    90.585777   -306.62992    299.83473    1.2635228   -1.0334349   -19.756511   -207.54596   -1.1129876    -19.76398    1.2471651  -0.94182091   -9.7182716   -207.55582   -1.1414344    -9.626119    197.65941  -0.96227765   -19.470488   -1.0084448   -1.0129563   -418.52228
Averages over the last 26 of 51 rows, steps 2500 to 5000:
Lx Pxx Pyy Pzz Temp COM1x[1] COM1x[2] COM1x[3] COM2x[1] COM2x[2] COM2x[3] COM3x[1] COM3x[2] COM3x[3] COM4x[1] COM4x[2] COM4x[3] COM5x[1] COM5x[2] COM5x[3] COMall[1 COMall[2 COMall[3
421.436 1317.71 1265.46 801.053 322.009 1.11663 -1.03871 -19.4366 -207.495 -0.976568 -19.9103 1.14239 -0.962718 -9.24496 -207.493 -0.982876 -9.74352 197.8 -0.885573 -19.7137 -0.983344 -0.989462 -418.538
Loop time of 29.5969 on 512 procs for 5000 steps with 346258 atoms

variable  com1_x equal "c_COM1x[1]"
variable  com1_y equal "c_COM1x[2]"
variable  com1_z equal "c_COM1x[3]"
variable  com2_x equal "c_COM2x[1]"
variable  com2_y equal "c_COM2x[2]"
variable  com2_z equal "c_COM2x[3]"
variable  com3_x equal "c_COM3x[1]"
variable  com3_y equal "c_COM3x[2]"
variable  com3_z equal "c_COM3x[3]"
variable  com4_x equal "c_COM4x[1]"
variable  com4_y equal "c_COM4x[2]"
variable  com4_z equal "c_COM4x[3]"
variable  com5_x equal "c_COM5x[1]"
variable  com5_y equal "c_COM5x[2]"
variable  com5_z equal "c_COM5x[3]"
variable  comall_x equal "c_COMall[1]"
variable  comall_y equal "c_COMall[2]"
variable  comall_z equal "c_COMall[3]"

#-------------------------- Wave Propagation -------------------------
unfix        3temp
run          1000000
Setting up Verlet run ...
  Unit style  : metal
  Current step: 5000
  Time step   : 0.002
Step Lx Pxx Pyy Pzz Temp COM1x[1] COM1x[2] COM1x[3] COM2x[1] COM2x[2] COM2x[3] COM3x[1] COM3x[2] COM3x[3] COM4x[1] COM4x[2] COM4x[3] COM5x[1] COM5x[2] COM5x[3] COMall[1 COMall[2 COMall[3
5000    421.43609     1625.863    1544.8446    920.92523    330.05948    1.0940839   -0.8618678   -19.219904   -207.59621  -0.91843522    -19.79888    1.0952429  -0.83720451   -8.9975896   -207.59261  -0.89961426   -9.6432998    197.71377  -0.87837827   -19.473587  -0.99957078   -1.0001771    -418.5409
Averages over the last 5001 of 10001 rows, steps 505000 to 1005000:
Lx Pxx Pyy Pzz Temp COM1x[1] COM1x[2] COM1x[3] COM2x[1] COM2x[2] COM2x[3] COM3x[1] COM3x[2] COM3x[3] COM4x[1] COM4x[2] COM4x[3] COM5x[1] COM5x[2] COM5x[3] COMall[1 COMall[2 COMall[3
421.436 1102.87 1081.66 -7.23587 330.976 -22.8722 -13.7299 -30.7961 -231.57 -13.6845 -30.944 -22.8755 -13.6855 -20.7555 -231.569 -13.6845 -20.7796 173.644 -13.5951 -30.7511 -24.9023 -13.6846 -430.266
Loop time of 5783.63 on 512 procs for 1000000 steps with 346258 atoms
