fission-0265
fission-0265
fission-0265
fission-0265
fission-0265
fission-0265
fission-0265
fission-0265
fission-0265
fission-0265
fission-0265
fission-0265
fission-0265
fission-0265
fission-0265
fission-0265
fission-0265
fission-0265
fission-0265
fission-0265
fission-0265
fission-0265
fission-0265
fission-0265
fission-0265
fission-0265
fission-0265
fission-0265
fission-0265
fission-0265
fission-0265
fission-0265
fission-0271
fission-0271
fission-0271
fission-0271
fission-0271
fission-0271
fission-0271
fission-0271
fission-0271
fission-0271
fission-0271
fission-0271
fission-0271
fission-0271
fission-0271
fission-0271
fission-0271
fission-0271
fission-0271
fission-0271
fission-0271
fission-0271
fission-0271
fission-0271
fission-0271
fission-0271
fission-0271
fission-0271
fission-0271
fission-0271
fission-0271
fission-0271
fission-0252
fission-0252
fission-0252
fission-0252
fission-0252
fission-0252
fission-0252
fission-0252
fission-0252
fission-0252
fission-0252
fission-0252
fission-0252
fission-0252
fission-0252
fission-0252
fission-0252
fission-0252
fission-0252
fission-0252
fission-0252
fission-0252
fission-0252
fission-0252
fission-0252
fission-0252
fission-0252
fission-0252
fission-0252
fission-0252
fission-0252
fission-0252
fission-0266
fission-0266
fission-0266
fission-0266
fission-0266
fission-0266
fission-0266
fission-0266
fission-0266
fission-0266
fission-0266
fission-0266
fission-0266
fission-0266
fission-0266
fission-0266
fission-0266
fission-0266
fission-0266
fission-0266
fission-0266
fission-0266
fission-0266
fission-0266
fission-0266
fission-0266
fission-0266
fission-0266
fission-0266
fission-0266
fission-0266
fission-0266
fission-0273
fission-0273
fission-0273
fission-0273
fission-0273
fission-0273
fission-0273
fission-0273
fission-0273
fission-0273
fission-0273
fission-0273
fission-0273
fission-0273
fission-0273
fission-0273
fission-0273
fission-0273
fission-0273
fission-0273
fission-0273
fission-0273
fission-0273
fission-0273
fission-0273
fission-0273
fission-0273
fission-0273
fission-0273
fission-0273
fission-0273
fission-0273
fission-0267
fission-0267
fission-0267
fission-0267
fission-0267
fission-0267
fission-0267
fission-0267
fission-0267
fission-0267
fission-0267
fission-0267
fission-0267
fission-0267
fission-0267
fission-0267
fission-0267
fission-0267
fission-0267
fission-0267
fission-0267
fission-0267
fission-0267
fission-0267
fission-0267
fission-0267
fission-0267
fission-0267
fission-0267
fission-0267
fission-0267
fission-0267
fission-0272
fission-0272
fission-0272
fission-0272
fission-0272
fission-0272
fission-0272
fission-0272
fission-0272
fission-0272
fission-0272
fission-0272
fission-0272
fission-0272
fission-0272
fission-0272
fission-0272
fission-0272
fission-0272
fission-0272
fission-0272
fission-0272
fission-0272
fission-0272
fission-0272
fission-0272
fission-0272
fission-0272
fission-0272
fission-0272
fission-0272
fission-0272
fission-0274
fission-0274
fission-0274
fission-0274
fission-0274
fission-0274
fission-0274
fission-0274
fission-0274
fission-0274
fission-0274
fission-0274
fission-0274
fission-0274
fission-0274
fission-0274
fission-0274
fission-0274
fission-0274
fission-0274
fission-0274
fission-0274
fission-0274
fission-0274
fission-0274
fission-0274
fission-0274
fission-0274
fission-0274
fission-0274
fission-0274
fission-0274
fission-0275
fission-0275
fission-0275
fission-0275
fission-0275
fission-0275
fission-0275
fission-0275
fission-0275
fission-0275
fission-0275
fission-0275
fission-0275
fission-0275
fission-0275
fission-0275
fission-0275
fission-0275
fission-0275
fission-0275
fission-0275
fission-0275
fission-0275
fission-0275
fission-0275
fission-0275
fission-0275
fission-0275
fission-0275
fission-0275
fission-0275
fission-0275
fission-0276
fission-0276
fission-0276
fission-0276
fission-0276
fission-0276
fission-0276
fission-0276
fission-0276
fission-0276
fission-0276
fission-0276
fission-0276
fission-0276
fission-0276
fission-0276
fission-0276
fission-0276
fission-0276
fission-0276
fission-0276
fission-0276
fission-0276
fission-0276
fission-0276
fission-0276
fission-0276
fission-0276
fission-0276
fission-0276
fission-0276
fission-0276
fission-0279
fission-0279
fission-0279
fission-0279
fission-0279
fission-0279
fission-0279
fission-0279
fission-0279
fission-0279
fission-0279
fission-0279
fission-0279
fission-0279
fission-0279
fission-0279
fission-0279
fission-0279
fission-0279
fission-0279
fission-0279
fission-0279
fission-0279
fission-0279
fission-0279
fission-0279
fission-0279
fission-0279
fission-0279
fission-0279
fission-0279
fission-0279
fission-0256
fission-0256
fission-0256
fission-0256
fission-0256
fission-0256
fission-0256
fission-0256
fission-0256
fission-0256
fission-0256
fission-0256
fission-0256
fission-0256
fission-0256
fission-0256
fission-0256
fission-0256
fission-0256
fission-0256
fission-0256
fission-0256
fission-0256
fission-0256
fission-0256
fission-0256
fission-0256
fission-0256
fission-0256
fission-0256
fission-0256
fission-0256
fission-0262
fission-0262
fission-0262
fission-0262
fission-0262
fission-0262
fission-0262
fission-0262
fission-0262
fission-0262
fission-0262
fission-0262
fission-0262
fission-0262
fission-0262
fission-0262
fission-0262
fission-0262
fission-0262
fission-0262
fission-0262
fission-0262
fission-0262
fission-0262
fission-0262
fission-0262
fission-0262
fission-0262
fission-0262
fission-0262
fission-0262
fission-0262
fission-0260
fission-0260
fission-0260
fission-0260
fission-0260
fission-0260
fission-0260
fission-0260
fission-0260
fission-0260
fission-0260
fission-0260
fission-0260
fission-0260
fission-0260
fission-0260
fission-0260
fission-0260
fission-0260
fission-0260
fission-0260
fission-0260
fission-0260
fission-0260
fission-0260
fission-0260
fission-0260
fission-0260
fission-0260
fission-0260
fission-0260
fission-0260
fission-0253
fission-0253
fission-0253
fission-0253
fission-0253
fission-0253
fission-0253
fission-0253
fission-0253
fission-0253
fission-0253
fission-0253
fission-0253
fission-0253
fission-0253
fission-0253
fission-0253
fission-0253
fission-0253
fission-0253
fission-0253
fission-0253
fission-0253
fission-0253
fission-0253
fission-0253
fission-0253
fission-0253
fission-0253
fission-0253
fission-0253
fission-0253
fission-0254
fission-0254
fission-0254
fission-0254
fission-0254
fission-0254
fission-0254
fission-0254
fission-0254
fission-0254
fission-0254
fission-0254
fission-0254
fission-0254
fission-0254
fission-0254
fission-0254
fission-0254
fission-0254
fission-0254
fission-0254
fission-0254
fission-0254
fission-0254
fission-0254
fission-0254
fission-0254
fission-0254
fission-0254
fission-0254
fission-0254
fission-0254

The following PBS extra args (PBS_EXTRA_ARGS) will be used: -P ldrd
The following lammps extra args (LAMMPS_EXTRA_ARGS) will be used:
LAMMPS (16 Feb 2016)
#log		log.c
units           metal
dimension       3
boundary        p p p
atom_style      atomic
shell         mkdir  cfg
shell         mkdir  dump

# ----------------------- ATOM DEFINITION & Force Field -------------
lattice         fcc 3.615 #origin 0.0 0.0 0.0 orient x 1 -1 0 orient y 1 1 -2 orient z 1 1 1
Lattice spacing in x,y,z = 3.615 3.615 3.615
variable        Lx equal 65
variable        Ly equal 3
variable        Lz equal 260
variable        boxLZ equal 270
region          SYSTEM block -65 65 -3 3 -260 0 units lattice
region          BOX block -65 65 -3 3 -270 5 units lattice
create_box      1 BOX
Created orthogonal box = (-234.975 -10.845 -976.05) to (234.975 10.845 18.075)
create_atoms    1 region SYSTEM
Created 812760 atoms

delete_atoms     porosity BOX 0.002 21626
Deleted 1619 atoms, new total = 811141

#---------------------------------------------------------------------

pair_style      eam/alloy
pair_coeff  	  * * Cu01.eam.alloy Cu

#----------------------------------------------------------------------
velocity       all create 300.0 1506 mom yes rot yes dist gaussian
fix             1 all npt temp 300 300 0.1 iso 0.0 0.0 2
run      10000
  1 neighbor list requests
  update every 1 steps, delay 10 steps, check yes
Setting up Verlet run ...
  Unit style  : metal
  Current step: 0
  Time step   : 0.001
Step Temp E_pair E_mol TotEng Press Volume
0          300     -2867605            0   -2836150.6    2388.9642     10133330
Loop time of 130.661 on 512 procs for 10000 steps with 811141 atoms

unfix 1

fix            2 all nvt temp 300.0 300.0 0.1

run      10000
Setting up Verlet run ...
  Unit style  : metal
  Current step: 10000
  Time step   : 0.001
Step Temp E_pair E_mol TotEng Press
10000    300.23948   -2835608.5            0     -2804129   -17.222235
Loop time of 126.555 on 512 procs for 10000 steps with 811141 atoms

reset_timestep 0
unfix    2
#---------------------- DEFINE Laser GERION and GROUP ----------------
region       R1  block -75  75  INF  INF  INF  5  units box
group        G1 region R1
258945 atoms in group G1
group        G2 subtract all G1
552196 atoms in group G2

#define     temperature/pressure calculation  group
variable    x1atom atom "x>=0  &&  x<4 &&  z>-40 && z<1"     ##NEW!!!!!!!!!!!!
variable    x2atom atom "x>=-234.98  &&  x<-230.98 &&  z>-40 && z<1"
variable    x3atom atom "x>=0  &&  x<4 &&  z>-20 && z<1"
variable    x4atom atom "x>=-234.98  &&  x<-230.98 &&  z>-20 && z<1"
variable    x5atom atom "x>=196  &&  x<200 &&  z>-40 && z<1"

group       x1atom variable x1atom
391 atoms in group x1atom
group       x2atom variable x2atom
276 atoms in group x2atom
group       x3atom variable x3atom
195 atoms in group x3atom
group       x4atom variable x4atom
144 atoms in group x4atom
group       x5atom variable x5atom
409 atoms in group x5atom

compute      COM1x x1atom com
compute      COM2x x2atom com
compute      COM3x x3atom com
compute      COM4x x4atom com
compute      COM5x x5atom com

compute      COMall all com

#Temperature profile
#variable      Tprofile atom 300*(1+(step/5000)*2.5*exp(z/40))
#variable tmp equal "lz"
variable      Tprofile atom  300+600*(step/5000)*exp(z/40)*exp(-x*x/1289)

# ------------------------- SETTINGS ---------------------------------
thermo          100
thermo_style    custom step lx pxx pyy pzz temp c_COM1x[1] c_COM1x[2] c_COM1x[3] c_COM2x[1] c_COM2x[2] c_COM2x[3] c_COM3x[1] c_COM3x[2] c_COM3x[3] c_COM4x[1] c_COM4x[2] c_COM4x[3]  c_COM5x[1] c_COM5x[2] c_COM5x[3] c_COMall[1] c_COMall[2] c_COMall[3]

timestep       0.002

compute dispall all displace/atom
# ---------------- Run Laser Material Interaction --------------------
#dump          1 all custom 1000 dump/z1dump.atom id type x y z c_dispall[1]  c_dispall[2]  c_dispall[3] c_dispall[4]
#dump          2 all cfg 100 cfg/*.cfg mass type xs ys zs
#dump_modify   2 element Al

#relax for 2 PS
#fix           1 all nvt temp 300.0 300.0 0.1
#run  1000
#unfix         1

fix           1  all nve
fix           3temp  all  langevin  v_Tprofile  0  0.1  378411   #TEST ALL
run           5000
Setting up Verlet run ...
  Unit style  : metal
  Current step: 0
  Time step   : 0.002
Step Lx Pxx Pyy Pzz Temp COM1x[1] COM1x[2] COM1x[3] COM2x[1] COM2x[2] COM2x[3] COM3x[1] COM3x[2] COM3x[3] COM4x[1] COM4x[2] COM4x[3] COM5x[1] COM5x[2] COM5x[3] COMall[1 COMall[2 COMall[3
0    472.00506   -436.38181   -408.75732   -334.14232    300.11584    2.0231688  -0.95540235   -20.104584   -233.19719  -0.80661396   -19.509948    2.0784962   -1.0271326   -9.8831028   -233.15579  -0.80746741   -9.5224722    197.94333  -0.87144467   -19.482677  -0.90186399  -0.90770092   -469.91484
Averages over the last 26 of 51 rows, steps 2500 to 5000:
Lx Pxx Pyy Pzz Temp COM1x[1] COM1x[2] COM1x[3] COM2x[1] COM2x[2] COM2x[3] COM3x[1] COM3x[2] COM3x[3] COM4x[1] COM4x[2] COM4x[3] COM5x[1] COM5x[2] COM5x[3] COMall[1 COMall[2 COMall[3
472.005 -282.83 -281.971 -211.715 302.796 1.98939 -0.920908 -20.06 -233.199 -0.845868 -19.44 2.08779 -1.00906 -9.80756 -233.201 -0.860713 -9.45389 197.972 -0.830622 -19.5272 -0.903495 -0.907431 -469.916
Loop time of 65.2753 on 512 procs for 5000 steps with 811141 atoms

variable  com1_x equal "c_COM1x[1]"
variable  com1_y equal "c_COM1x[2]"
variable  com1_z equal "c_COM1x[3]"
variable  com2_x equal "c_COM2x[1]"
variable  com2_y equal "c_COM2x[2]"
variable  com2_z equal "c_COM2x[3]"
variable  com3_x equal "c_COM3x[1]"
variable  com3_y equal "c_COM3x[2]"
variable  com3_z equal "c_COM3x[3]"
variable  com4_x equal "c_COM4x[1]"
variable  com4_y equal "c_COM4x[2]"
variable  com4_z equal "c_COM4x[3]"
variable  com5_x equal "c_COM5x[1]"
variable  com5_y equal "c_COM5x[2]"
variable  com5_z equal "c_COM5x[3]"
variable  comall_x equal "c_COMall[1]"
variable  comall_y equal "c_COMall[2]"
variable  comall_z equal "c_COMall[3]"

#-------------------------- Wave Propagation -------------------------
unfix        3temp
run          1000000
Setting up Verlet run ...
  Unit style  : metal
  Current step: 5000
  Time step   : 0.002
Step Lx Pxx Pyy Pzz Temp COM1x[1] COM1x[2] COM1x[3] COM2x[1] COM2x[2] COM2x[3] COM3x[1] COM3x[2] COM3x[3] COM4x[1] COM4x[2] COM4x[3] COM5x[1] COM5x[2] COM5x[3] COMall[1 COMall[2 COMall[3
5000    472.00506   -206.87267   -212.18964   -170.05889     302.8663    2.0128406  -0.91095506   -20.054966   -233.19087  -0.85375491     -19.4512    2.0967098  -0.98397008   -9.7731328    -233.1763  -0.86179877   -9.4419428    197.96935  -0.82214527   -19.567441  -0.90301074  -0.90918741   -469.91879
Averages over the last 5001 of 10001 rows, steps 505000 to 1005000:
Lx Pxx Pyy Pzz Temp COM1x[1] COM1x[2] COM1x[3] COM2x[1] COM2x[2] COM2x[3] COM3x[1] COM3x[2] COM3x[3] COM4x[1] COM4x[2] COM4x[3] COM5x[1] COM5x[2] COM5x[3] COMall[1 COMall[2 COMall[3
472.005 -120.073 -114.565 -3.27897 303.416 6.37092 1.26668 -17.2746 -228.813 1.33307 -16.5836 6.46778 1.17109 -7.06962 -228.813 1.3332 -6.59327 202.356 1.3131 -16.6864 3.56291 1.33324 -467
Loop time of 12428.2 on 512 procs for 1000000 steps with 811141 atoms
