fission-0210
fission-0210
fission-0210
fission-0210
fission-0210
fission-0210
fission-0210
fission-0210
fission-0210
fission-0210
fission-0210
fission-0210
fission-0210
fission-0210
fission-0210
fission-0210
fission-0210
fission-0210
fission-0210
fission-0210
fission-0210
fission-0210
fission-0210
fission-0210
fission-0210
fission-0210
fission-0210
fission-0210
fission-0210
fission-0210
fission-0210
fission-0210
fission-0215
fission-0215
fission-0215
fission-0215
fission-0215
fission-0215
fission-0215
fission-0215
fission-0215
fission-0215
fission-0215
fission-0215
fission-0215
fission-0215
fission-0215
fission-0215
fission-0215
fission-0215
fission-0215
fission-0215
fission-0215
fission-0215
fission-0215
fission-0215
fission-0215
fission-0215
fission-0215
fission-0215
fission-0215
fission-0215
fission-0215
fission-0215
fission-0208
fission-0208
fission-0208
fission-0208
fission-0208
fission-0208
fission-0208
fission-0208
fission-0208
fission-0208
fission-0208
fission-0208
fission-0208
fission-0208
fission-0208
fission-0208
fission-0208
fission-0208
fission-0208
fission-0208
fission-0208
fission-0208
fission-0208
fission-0208
fission-0208
fission-0208
fission-0208
fission-0208
fission-0208
fission-0208
fission-0208
fission-0208
fission-0213
fission-0213
fission-0213
fission-0213
fission-0213
fission-0213
fission-0213
fission-0213
fission-0213
fission-0213
fission-0213
fission-0213
fission-0213
fission-0213
fission-0213
fission-0213
fission-0213
fission-0213
fission-0213
fission-0213
fission-0213
fission-0213
fission-0213
fission-0213
fission-0213
fission-0213
fission-0213
fission-0213
fission-0213
fission-0213
fission-0213
fission-0213
fission-0219
fission-0219
fission-0219
fission-0219
fission-0219
fission-0219
fission-0219
fission-0219
fission-0219
fission-0219
fission-0219
fission-0219
fission-0219
fission-0219
fission-0219
fission-0219
fission-0219
fission-0219
fission-0219
fission-0219
fission-0219
fission-0219
fission-0219
fission-0219
fission-0219
fission-0219
fission-0219
fission-0219
fission-0219
fission-0219
fission-0219
fission-0219
fission-0211
fission-0211
fission-0211
fission-0211
fission-0211
fission-0211
fission-0211
fission-0211
fission-0211
fission-0211
fission-0211
fission-0211
fission-0211
fission-0211
fission-0211
fission-0211
fission-0211
fission-0211
fission-0211
fission-0211
fission-0211
fission-0211
fission-0211
fission-0211
fission-0211
fission-0211
fission-0211
fission-0211
fission-0211
fission-0211
fission-0211
fission-0211
fission-0212
fission-0212
fission-0212
fission-0212
fission-0212
fission-0212
fission-0212
fission-0212
fission-0212
fission-0212
fission-0212
fission-0212
fission-0212
fission-0212
fission-0212
fission-0212
fission-0212
fission-0212
fission-0212
fission-0212
fission-0212
fission-0212
fission-0212
fission-0212
fission-0212
fission-0212
fission-0212
fission-0212
fission-0212
fission-0212
fission-0212
fission-0212
fission-0220
fission-0220
fission-0220
fission-0220
fission-0220
fission-0220
fission-0220
fission-0220
fission-0220
fission-0220
fission-0220
fission-0220
fission-0220
fission-0220
fission-0220
fission-0220
fission-0220
fission-0220
fission-0220
fission-0220
fission-0220
fission-0220
fission-0220
fission-0220
fission-0220
fission-0220
fission-0220
fission-0220
fission-0220
fission-0220
fission-0220
fission-0220
fission-0223
fission-0223
fission-0223
fission-0223
fission-0223
fission-0223
fission-0223
fission-0223
fission-0223
fission-0223
fission-0223
fission-0223
fission-0223
fission-0223
fission-0223
fission-0223
fission-0223
fission-0223
fission-0223
fission-0223
fission-0223
fission-0223
fission-0223
fission-0223
fission-0223
fission-0223
fission-0223
fission-0223
fission-0223
fission-0223
fission-0223
fission-0223
fission-0221
fission-0221
fission-0221
fission-0221
fission-0221
fission-0221
fission-0221
fission-0221
fission-0221
fission-0221
fission-0221
fission-0221
fission-0221
fission-0221
fission-0221
fission-0221
fission-0221
fission-0221
fission-0221
fission-0221
fission-0221
fission-0221
fission-0221
fission-0221
fission-0221
fission-0221
fission-0221
fission-0221
fission-0221
fission-0221
fission-0221
fission-0221
fission-0204
fission-0204
fission-0204
fission-0204
fission-0204
fission-0204
fission-0204
fission-0204
fission-0204
fission-0204
fission-0204
fission-0204
fission-0204
fission-0204
fission-0204
fission-0204
fission-0204
fission-0204
fission-0204
fission-0204
fission-0204
fission-0204
fission-0204
fission-0204
fission-0204
fission-0204
fission-0204
fission-0204
fission-0204
fission-0204
fission-0204
fission-0204
fission-0200
fission-0200
fission-0200
fission-0200
fission-0200
fission-0200
fission-0200
fission-0200
fission-0200
fission-0200
fission-0200
fission-0200
fission-0200
fission-0200
fission-0200
fission-0200
fission-0200
fission-0200
fission-0200
fission-0200
fission-0200
fission-0200
fission-0200
fission-0200
fission-0200
fission-0200
fission-0200
fission-0200
fission-0200
fission-0200
fission-0200
fission-0200
fission-0198
fission-0198
fission-0198
fission-0198
fission-0198
fission-0198
fission-0198
fission-0198
fission-0198
fission-0198
fission-0198
fission-0198
fission-0198
fission-0198
fission-0198
fission-0198
fission-0198
fission-0198
fission-0198
fission-0198
fission-0198
fission-0198
fission-0198
fission-0198
fission-0198
fission-0198
fission-0198
fission-0198
fission-0198
fission-0198
fission-0198
fission-0198
fission-0199
fission-0199
fission-0199
fission-0199
fission-0199
fission-0199
fission-0199
fission-0199
fission-0199
fission-0199
fission-0199
fission-0199
fission-0199
fission-0199
fission-0199
fission-0199
fission-0199
fission-0199
fission-0199
fission-0199
fission-0199
fission-0199
fission-0199
fission-0199
fission-0199
fission-0199
fission-0199
fission-0199
fission-0199
fission-0199
fission-0199
fission-0199
fission-0201
fission-0201
fission-0201
fission-0201
fission-0201
fission-0201
fission-0201
fission-0201
fission-0201
fission-0201
fission-0201
fission-0201
fission-0201
fission-0201
fission-0201
fission-0201
fission-0201
fission-0201
fission-0201
fission-0201
fission-0201
fission-0201
fission-0201
fission-0201
fission-0201
fission-0201
fission-0201
fission-0201
fission-0201
fission-0201
fission-0201
fission-0201
fission-0203
fission-0203
fission-0203
fission-0203
fission-0203
fission-0203
fission-0203
fission-0203
fission-0203
fission-0203
fission-0203
fission-0203
fission-0203
fission-0203
fission-0203
fission-0203
fission-0203
fission-0203
fission-0203
fission-0203
fission-0203
fission-0203
fission-0203
fission-0203
fission-0203
fission-0203
fission-0203
fission-0203
fission-0203
fission-0203
fission-0203
fission-0203

The following PBS extra args (PBS_EXTRA_ARGS) will be used: -P ldrd
The following lammps extra args (LAMMPS_EXTRA_ARGS) will be used:
LAMMPS (16 Feb 2016)
#log		log.c
units           metal
dimension       3
boundary        p p p
atom_style      atomic
shell         mkdir  cfg
shell         mkdir  dump

# ----------------------- ATOM DEFINITION & Force Field -------------
# ----------------------- ATOM DEFINITION ----------------------------
lattice         fcc 4.024845358 #origin 0.0 0.0 0.0 orient x 1 -1 0 orient y 1 1 -2 orient z 1 1 1
Lattice spacing in x,y,z = 4.02485 4.02485 4.02485
variable        Lx equal 52
variable        Ly equal 2
variable        Lz equal 208
variable        boxLZ equal 218
region          SYSTEM block -52 52 -2 2 -208 0 units lattice
region          BOX block -52 52 -2 2 -218 5 units lattice
create_box      1 BOX
Created orthogonal box = (-209.292 -8.04969 -877.416) to (209.292 8.04969 20.1242)
create_atoms    1 region SYSTEM
Created 346944 atoms

delete_atoms     porosity BOX 0.005 29421    ##random seed <RAND1>
Deleted 1692 atoms, new total = 345252

#---------------------------------------------------------------------------------
pair_style      eam/alloy
pair_coeff  	  * * Al_wkg_MSMSE_2009.set Al

#----------------------------------------------------------------------------------
velocity       all create 300.0 11730 mom yes rot yes dist gaussian         ##random seed <RAND2>

fix             1 all npt temp 300 300 0.1 iso 0.0 0.0 2
run      10000
  1 neighbor list requests
  update every 1 steps, delay 10 steps, check yes
Setting up Verlet run ...
  Unit style  : metal
  Current step: 0
  Time step   : 0.001
Step Temp E_pair E_mol TotEng Press Volume
0          300   -911443.91            0   -898055.75    789.49561    6048473.6
Loop time of 58.0252 on 512 procs for 10000 steps with 345252 atoms

unfix 1

fix            2 all nvt temp 300.0 300.0 0.1

run      10000
Setting up Verlet run ...
  Unit style  : metal
  Current step: 10000
  Time step   : 0.001
Step Temp E_pair E_mol TotEng Press
10000    299.29462   -897578.18            0    -884221.5    18.030873
Loop time of 56.409 on 512 procs for 10000 steps with 345252 atoms

reset_timestep 0
unfix    2
#---------------------- DEFINE Laser GERION and GROUP ----------------
region       R1  block -75  75  INF  INF  INF  5  units box
group        G1 region R1
123548 atoms in group G1
group        G2 subtract all G1
221704 atoms in group G2

#define     temperature/pressure calculation  group
variable    x1atom atom "x>=0  &&  x<4 &&  z>-40 && z<1"     ##NEW!!!!!!!!!!!!
variable    x2atom atom "x>=-209.292  &&  x<-205.292 &&  z>-40 && z<1"
variable    x3atom atom "x>=0  &&  x<4 &&  z>-20 && z<1"
variable    x4atom atom "x>=-209.292  &&  x<-205.292 &&  z>-20 && z<1"
variable    x5atom atom "x>=196  &&  x<200 &&  z>-40 && z<1"

group       x1atom variable x1atom
149 atoms in group x1atom
group       x2atom variable x2atom
160 atoms in group x2atom
group       x3atom variable x3atom
76 atoms in group x3atom
group       x4atom variable x4atom
80 atoms in group x4atom
group       x5atom variable x5atom
160 atoms in group x5atom

compute      COM1x x1atom com
compute      COM2x x2atom com
compute      COM3x x3atom com
compute      COM4x x4atom com
compute      COM5x x5atom com

compute      COMall all com

#Temperature profile
#variable      Tprofile atom 300*(1+(step/5000)*2.5*exp(z/40))
variable      Tprofile atom 300*(1+(step/5000)*2.5*exp(z/75))

# ------------------------- SETTINGS ---------------------------------
thermo          100
thermo_style    custom step lx pxx pyy pzz temp c_COM1x[1] c_COM1x[2] c_COM1x[3] c_COM2x[1] c_COM2x[2] c_COM2x[3] c_COM3x[1] c_COM3x[2] c_COM3x[3] c_COM4x[1] c_COM4x[2] c_COM4x[3]  c_COM5x[1] c_COM5x[2] c_COM5x[3] c_COMall[1] c_COMall[2] c_COMall[3]

timestep       0.002

compute dispall all displace/atom
# ---------------- Run Laser Material Interaction --------------------
#dump          1 all custom 1000 dump/z1dump.atom id type x y z c_dispall[1]  c_dispall[2]  c_dispall[3] c_dispall[4]
#dump          2 all cfg 100 cfg/*.cfg mass type xs ys zs
#dump_modify   2 element Al

#relax for 2 PS
#fix           1 all nvt temp 300.0 300.0 0.1
#run  1000
#unfix         1

fix           1  all nve
fix           3temp  G1  langevin  v_Tprofile  0  0.1  378411   #TEST ALL
run           5000
Setting up Verlet run ...
  Unit style  : metal
  Current step: 0
  Time step   : 0.002
Step Lx Pxx Pyy Pzz Temp COM1x[1] COM1x[2] COM1x[3] COM2x[1] COM2x[2] COM2x[3] COM3x[1] COM3x[2] COM3x[3] COM4x[1] COM4x[2] COM4x[3] COM5x[1] COM5x[2] COM5x[3] COMall[1 COMall[2 COMall[3
0    421.28727     108.0582    108.52468   -164.59342    300.19649    1.8157933  -0.82054196   -19.891634   -207.57784  -0.86253658   -19.939414    1.6598124  -0.94380141    -9.974187   -207.60363  -0.86591966   -9.7271841     197.4985  -0.75606206   -19.995384   -1.0044087   -1.0122346   -418.49757
Averages over the last 26 of 51 rows, steps 2500 to 5000:
Lx Pxx Pyy Pzz Temp COM1x[1] COM1x[2] COM1x[3] COM2x[1] COM2x[2] COM2x[3] COM3x[1] COM3x[2] COM3x[3] COM4x[1] COM4x[2] COM4x[3] COM5x[1] COM5x[2] COM5x[3] COMall[1 COMall[2 COMall[3
421.287 1211.57 1154.01 774.704 322.496 1.80033 -0.823053 -19.6239 -207.604 -1.07435 -19.9933 1.64098 -0.973733 -9.54148 -207.611 -1.08803 -9.73498 197.565 -0.944437 -19.9692 -0.999363 -1.00349 -418.5
Loop time of 30.6314 on 512 procs for 5000 steps with 345252 atoms

variable  com1_x equal "c_COM1x[1]"
variable  com1_y equal "c_COM1x[2]"
variable  com1_z equal "c_COM1x[3]"
variable  com2_x equal "c_COM2x[1]"
variable  com2_y equal "c_COM2x[2]"
variable  com2_z equal "c_COM2x[3]"
variable  com3_x equal "c_COM3x[1]"
variable  com3_y equal "c_COM3x[2]"
variable  com3_z equal "c_COM3x[3]"
variable  com4_x equal "c_COM4x[1]"
variable  com4_y equal "c_COM4x[2]"
variable  com4_z equal "c_COM4x[3]"
variable  com5_x equal "c_COM5x[1]"
variable  com5_y equal "c_COM5x[2]"
variable  com5_z equal "c_COM5x[3]"
variable  comall_x equal "c_COMall[1]"
variable  comall_y equal "c_COMall[2]"
variable  comall_z equal "c_COMall[3]"

#-------------------------- Wave Propagation -------------------------
unfix        3temp
run          1000000
Setting up Verlet run ...
  Unit style  : metal
  Current step: 5000
  Time step   : 0.002
Step Lx Pxx Pyy Pzz Temp COM1x[1] COM1x[2] COM1x[3] COM2x[1] COM2x[2] COM2x[3] COM3x[1] COM3x[2] COM3x[3] COM4x[1] COM4x[2] COM4x[3] COM5x[1] COM5x[2] COM5x[3] COMall[1 COMall[2 COMall[3
5000    421.28727    1462.7001    1391.9587    879.16015    330.08064    1.7756572    -0.781899   -19.418952   -207.61844   -1.0265523   -19.774771    1.6206161  -0.94127048   -9.2904674   -207.57166   -1.0282537   -9.4691474    197.58385  -0.89945361   -19.638142   -1.0014076   -1.0037574   -418.51302
Averages over the last 5001 of 10001 rows, steps 505000 to 1005000:
Lx Pxx Pyy Pzz Temp COM1x[1] COM1x[2] COM1x[3] COM2x[1] COM2x[2] COM2x[3] COM3x[1] COM3x[2] COM3x[3] COM4x[1] COM4x[2] COM4x[3] COM5x[1] COM5x[2] COM5x[3] COMall[1 COMall[2 COMall[3
421.287 986.321 964.879 -7.27221 331.173 -17.4529 -11.0609 -30.7333 -226.899 -11.1666 -30.7213 -17.6151 -11.2255 -20.825 -226.912 -11.1798 -20.459 178.199 -11.0653 -30.7107 -20.2772 -11.152 -429.902
Loop time of 5588.49 on 512 procs for 1000000 steps with 345252 atoms
