fission-0355
fission-0355
fission-0355
fission-0355
fission-0355
fission-0355
fission-0355
fission-0355
fission-0355
fission-0355
fission-0355
fission-0355
fission-0355
fission-0355
fission-0355
fission-0355
fission-0355
fission-0355
fission-0355
fission-0355
fission-0355
fission-0355
fission-0355
fission-0355
fission-0355
fission-0355
fission-0355
fission-0355
fission-0355
fission-0355
fission-0355
fission-0355
fission-0358
fission-0358
fission-0358
fission-0358
fission-0358
fission-0358
fission-0358
fission-0358
fission-0358
fission-0358
fission-0358
fission-0358
fission-0358
fission-0358
fission-0358
fission-0358
fission-0358
fission-0358
fission-0358
fission-0358
fission-0358
fission-0358
fission-0358
fission-0358
fission-0358
fission-0358
fission-0358
fission-0358
fission-0358
fission-0358
fission-0358
fission-0358
fission-0341
fission-0341
fission-0341
fission-0341
fission-0341
fission-0341
fission-0341
fission-0341
fission-0341
fission-0341
fission-0341
fission-0341
fission-0341
fission-0341
fission-0341
fission-0341
fission-0341
fission-0341
fission-0341
fission-0341
fission-0341
fission-0341
fission-0341
fission-0341
fission-0341
fission-0341
fission-0341
fission-0341
fission-0341
fission-0341
fission-0341
fission-0341
fission-0357
fission-0357
fission-0357
fission-0357
fission-0357
fission-0357
fission-0357
fission-0357
fission-0357
fission-0357
fission-0357
fission-0357
fission-0357
fission-0357
fission-0357
fission-0357
fission-0357
fission-0357
fission-0357
fission-0357
fission-0357
fission-0357
fission-0357
fission-0357
fission-0357
fission-0357
fission-0357
fission-0357
fission-0357
fission-0357
fission-0357
fission-0357
fission-0361
fission-0361
fission-0361
fission-0361
fission-0361
fission-0361
fission-0361
fission-0361
fission-0361
fission-0361
fission-0361
fission-0361
fission-0361
fission-0361
fission-0361
fission-0361
fission-0361
fission-0361
fission-0361
fission-0361
fission-0361
fission-0361
fission-0361
fission-0361
fission-0361
fission-0361
fission-0361
fission-0361
fission-0361
fission-0361
fission-0361
fission-0361
fission-0345
fission-0345
fission-0345
fission-0345
fission-0345
fission-0345
fission-0345
fission-0345
fission-0345
fission-0345
fission-0345
fission-0345
fission-0345
fission-0345
fission-0345
fission-0345
fission-0345
fission-0345
fission-0345
fission-0345
fission-0345
fission-0345
fission-0345
fission-0345
fission-0345
fission-0345
fission-0345
fission-0345
fission-0345
fission-0345
fission-0345
fission-0345
fission-0349
fission-0349
fission-0349
fission-0349
fission-0349
fission-0349
fission-0349
fission-0349
fission-0349
fission-0349
fission-0349
fission-0349
fission-0349
fission-0349
fission-0349
fission-0349
fission-0349
fission-0349
fission-0349
fission-0349
fission-0349
fission-0349
fission-0349
fission-0349
fission-0349
fission-0349
fission-0349
fission-0349
fission-0349
fission-0349
fission-0349
fission-0349
fission-0352
fission-0352
fission-0352
fission-0352
fission-0352
fission-0352
fission-0352
fission-0352
fission-0352
fission-0352
fission-0352
fission-0352
fission-0352
fission-0352
fission-0352
fission-0352
fission-0352
fission-0352
fission-0352
fission-0352
fission-0352
fission-0352
fission-0352
fission-0352
fission-0352
fission-0352
fission-0352
fission-0352
fission-0352
fission-0352
fission-0352
fission-0352
fission-0353
fission-0353
fission-0353
fission-0353
fission-0353
fission-0353
fission-0353
fission-0353
fission-0353
fission-0353
fission-0353
fission-0353
fission-0353
fission-0353
fission-0353
fission-0353
fission-0353
fission-0353
fission-0353
fission-0353
fission-0353
fission-0353
fission-0353
fission-0353
fission-0353
fission-0353
fission-0353
fission-0353
fission-0353
fission-0353
fission-0353
fission-0353
fission-0354
fission-0354
fission-0354
fission-0354
fission-0354
fission-0354
fission-0354
fission-0354
fission-0354
fission-0354
fission-0354
fission-0354
fission-0354
fission-0354
fission-0354
fission-0354
fission-0354
fission-0354
fission-0354
fission-0354
fission-0354
fission-0354
fission-0354
fission-0354
fission-0354
fission-0354
fission-0354
fission-0354
fission-0354
fission-0354
fission-0354
fission-0354
fission-0359
fission-0359
fission-0359
fission-0359
fission-0359
fission-0359
fission-0359
fission-0359
fission-0359
fission-0359
fission-0359
fission-0359
fission-0359
fission-0359
fission-0359
fission-0359
fission-0359
fission-0359
fission-0359
fission-0359
fission-0359
fission-0359
fission-0359
fission-0359
fission-0359
fission-0359
fission-0359
fission-0359
fission-0359
fission-0359
fission-0359
fission-0359
fission-0336
fission-0336
fission-0336
fission-0336
fission-0336
fission-0336
fission-0336
fission-0336
fission-0336
fission-0336
fission-0336
fission-0336
fission-0336
fission-0336
fission-0336
fission-0336
fission-0336
fission-0336
fission-0336
fission-0336
fission-0336
fission-0336
fission-0336
fission-0336
fission-0336
fission-0336
fission-0336
fission-0336
fission-0336
fission-0336
fission-0336
fission-0336
fission-0337
fission-0337
fission-0337
fission-0337
fission-0337
fission-0337
fission-0337
fission-0337
fission-0337
fission-0337
fission-0337
fission-0337
fission-0337
fission-0337
fission-0337
fission-0337
fission-0337
fission-0337
fission-0337
fission-0337
fission-0337
fission-0337
fission-0337
fission-0337
fission-0337
fission-0337
fission-0337
fission-0337
fission-0337
fission-0337
fission-0337
fission-0337
fission-0362
fission-0362
fission-0362
fission-0362
fission-0362
fission-0362
fission-0362
fission-0362
fission-0362
fission-0362
fission-0362
fission-0362
fission-0362
fission-0362
fission-0362
fission-0362
fission-0362
fission-0362
fission-0362
fission-0362
fission-0362
fission-0362
fission-0362
fission-0362
fission-0362
fission-0362
fission-0362
fission-0362
fission-0362
fission-0362
fission-0362
fission-0362
fission-0338
fission-0338
fission-0338
fission-0338
fission-0338
fission-0338
fission-0338
fission-0338
fission-0338
fission-0338
fission-0338
fission-0338
fission-0338
fission-0338
fission-0338
fission-0338
fission-0338
fission-0338
fission-0338
fission-0338
fission-0338
fission-0338
fission-0338
fission-0338
fission-0338
fission-0338
fission-0338
fission-0338
fission-0338
fission-0338
fission-0338
fission-0338
fission-0340
fission-0340
fission-0340
fission-0340
fission-0340
fission-0340
fission-0340
fission-0340
fission-0340
fission-0340
fission-0340
fission-0340
fission-0340
fission-0340
fission-0340
fission-0340
fission-0340
fission-0340
fission-0340
fission-0340
fission-0340
fission-0340
fission-0340
fission-0340
fission-0340
fission-0340
fission-0340
fission-0340
fission-0340
fission-0340
fission-0340
fission-0340

The following PBS extra args (PBS_EXTRA_ARGS) will be used: -P ldrd
The following lammps extra args (LAMMPS_EXTRA_ARGS) will be used:
LAMMPS (16 Feb 2016)
#log		log.c
units           metal
dimension       3
boundary        p p p
atom_style      atomic
shell         mkdir  cfg
shell         mkdir  dump

# ----------------------- ATOM DEFINITION & Force Field -------------
# ----------------------- ATOM DEFINITION ----------------------------
lattice         fcc 4.024845358 #origin 0.0 0.0 0.0 orient x 1 -1 0 orient y 1 1 -2 orient z 1 1 1
Lattice spacing in x,y,z = 4.02485 4.02485 4.02485
variable        Lx equal 52
variable        Ly equal 2
variable        Lz equal 208
variable        boxLZ equal 218
region          SYSTEM block -52 52 -2 2 -208 0 units lattice
region          BOX block -52 52 -2 2 -218 5 units lattice
create_box      1 BOX
Created orthogonal box = (-209.292 -8.04969 -877.416) to (209.292 8.04969 20.1242)
create_atoms    1 region SYSTEM
Created 346944 atoms

delete_atoms     porosity BOX 0.005 27014    ##random seed <RAND1>
Deleted 1725 atoms, new total = 345219

#---------------------------------------------------------------------------------
pair_style      eam/alloy
pair_coeff  	  * * Al_wkg_MSMSE_2009.set Al

#----------------------------------------------------------------------------------
velocity       all create 300.0 2404 mom yes rot yes dist gaussian         ##random seed <RAND2>

fix             1 all npt temp 300 300 0.1 iso 0.0 0.0 2
run      10000
  1 neighbor list requests
  update every 1 steps, delay 10 steps, check yes
Setting up Verlet run ...
  Unit style  : metal
  Current step: 0
  Time step   : 0.001
Step Temp E_pair E_mol TotEng Press Volume
0          300   -911331.46            0   -897944.59    761.24126    6048473.6
Loop time of 61.8267 on 512 procs for 10000 steps with 345219 atoms

unfix 1

fix            2 all nvt temp 300.0 300.0 0.1

run      10000
Setting up Verlet run ...
  Unit style  : metal
  Current step: 10000
  Time step   : 0.001
Step Temp E_pair E_mol TotEng Press
10000    299.55806   -897492.24            0   -884125.08    29.111731
Loop time of 62.7187 on 512 procs for 10000 steps with 345219 atoms

reset_timestep 0
unfix    2
#---------------------- DEFINE Laser GERION and GROUP ----------------
region       R1  block -75  75  INF  INF  INF  5  units box
group        G1 region R1
123413 atoms in group G1
group        G2 subtract all G1
221806 atoms in group G2

#define     temperature/pressure calculation  group
variable    x1atom atom "x>=0  &&  x<4 &&  z>-40 && z<1"     ##NEW!!!!!!!!!!!!
variable    x2atom atom "x>=-209.292  &&  x<-205.292 &&  z>-40 && z<1"
variable    x3atom atom "x>=0  &&  x<4 &&  z>-20 && z<1"
variable    x4atom atom "x>=-209.292  &&  x<-205.292 &&  z>-20 && z<1"
variable    x5atom atom "x>=196  &&  x<200 &&  z>-40 && z<1"

group       x1atom variable x1atom
156 atoms in group x1atom
group       x2atom variable x2atom
160 atoms in group x2atom
group       x3atom variable x3atom
78 atoms in group x3atom
group       x4atom variable x4atom
80 atoms in group x4atom
group       x5atom variable x5atom
160 atoms in group x5atom

compute      COM1x x1atom com
compute      COM2x x2atom com
compute      COM3x x3atom com
compute      COM4x x4atom com
compute      COM5x x5atom com

compute      COMall all com

#Temperature profile
#variable      Tprofile atom 300*(1+(step/5000)*2.5*exp(z/40))
variable      Tprofile atom 300*(1+(step/5000)*2.5*exp(z/75))

# ------------------------- SETTINGS ---------------------------------
thermo          100
thermo_style    custom step lx pxx pyy pzz temp c_COM1x[1] c_COM1x[2] c_COM1x[3] c_COM2x[1] c_COM2x[2] c_COM2x[3] c_COM3x[1] c_COM3x[2] c_COM3x[3] c_COM4x[1] c_COM4x[2] c_COM4x[3]  c_COM5x[1] c_COM5x[2] c_COM5x[3] c_COMall[1] c_COMall[2] c_COMall[3]

timestep       0.002

compute dispall all displace/atom
# ---------------- Run Laser Material Interaction --------------------
#dump          1 all custom 1000 dump/z1dump.atom id type x y z c_dispall[1]  c_dispall[2]  c_dispall[3] c_dispall[4]
#dump          2 all cfg 100 cfg/*.cfg mass type xs ys zs
#dump_modify   2 element Al

#relax for 2 PS
#fix           1 all nvt temp 300.0 300.0 0.1
#run  1000
#unfix         1

fix           1  all nve
fix           3temp  G1  langevin  v_Tprofile  0  0.1  378411   #TEST ALL
run           5000
Setting up Verlet run ...
  Unit style  : metal
  Current step: 0
  Time step   : 0.002
Step Lx Pxx Pyy Pzz Temp COM1x[1] COM1x[2] COM1x[3] COM2x[1] COM2x[2] COM2x[3] COM3x[1] COM3x[2] COM3x[3] COM4x[1] COM4x[2] COM4x[3] COM5x[1] COM5x[2] COM5x[3] COMall[1 COMall[2 COMall[3
0    421.30028    61.422964    24.530909     -196.155    300.45779     1.256555  -0.82076002   -20.140252   -207.69421    -1.020541   -20.008085    1.2865068  -0.83587043   -9.9845394    -207.6809   -1.0198615   -9.8890323    197.36964   -1.1046098   -20.030677   -1.0175023   -1.0130491   -418.48384
Averages over the last 26 of 51 rows, steps 2500 to 5000:
Lx Pxx Pyy Pzz Temp COM1x[1] COM1x[2] COM1x[3] COM2x[1] COM2x[2] COM2x[3] COM3x[1] COM3x[2] COM3x[3] COM4x[1] COM4x[2] COM4x[3] COM5x[1] COM5x[2] COM5x[3] COMall[1 COMall[2 COMall[3
421.3 1075.15 1037.94 645.729 322.55 1.08948 -0.823154 -19.8168 -207.64 -0.996607 -20.1801 1.13561 -0.751674 -9.44086 -207.632 -0.989597 -10.0215 197.518 -0.983508 -20.1728 -1.01297 -1.01175 -418.579
Loop time of 30.343 on 512 procs for 5000 steps with 345219 atoms

variable  com1_x equal "c_COM1x[1]"
variable  com1_y equal "c_COM1x[2]"
variable  com1_z equal "c_COM1x[3]"
variable  com2_x equal "c_COM2x[1]"
variable  com2_y equal "c_COM2x[2]"
variable  com2_z equal "c_COM2x[3]"
variable  com3_x equal "c_COM3x[1]"
variable  com3_y equal "c_COM3x[2]"
variable  com3_z equal "c_COM3x[3]"
variable  com4_x equal "c_COM4x[1]"
variable  com4_y equal "c_COM4x[2]"
variable  com4_z equal "c_COM4x[3]"
variable  com5_x equal "c_COM5x[1]"
variable  com5_y equal "c_COM5x[2]"
variable  com5_z equal "c_COM5x[3]"
variable  comall_x equal "c_COMall[1]"
variable  comall_y equal "c_COMall[2]"
variable  comall_z equal "c_COMall[3]"

#-------------------------- Wave Propagation -------------------------
unfix        3temp
run          1000000
Setting up Verlet run ...
  Unit style  : metal
  Current step: 5000
  Time step   : 0.002
Step Lx Pxx Pyy Pzz Temp COM1x[1] COM1x[2] COM1x[3] COM2x[1] COM2x[2] COM2x[3] COM3x[1] COM3x[2] COM3x[3] COM4x[1] COM4x[2] COM4x[3] COM5x[1] COM5x[2] COM5x[3] COMall[1 COMall[2 COMall[3
5000    421.30028    1351.3122    1264.5534    789.69458    331.12668    1.1024277  -0.71801066   -19.639594   -207.66796   -1.0945399   -20.007724    1.1378642  -0.63845436   -9.1524511    -207.6417   -1.0963452   -9.8690101    197.50764    -1.172008   -20.027742   -1.0178808    -1.004094   -418.58924
Averages over the last 5001 of 10001 rows, steps 505000 to 1005000:
Lx Pxx Pyy Pzz Temp COM1x[1] COM1x[2] COM1x[3] COM2x[1] COM2x[2] COM2x[3] COM3x[1] COM3x[2] COM3x[3] COM4x[1] COM4x[2] COM4x[3] COM5x[1] COM5x[2] COM5x[3] COMall[1 COMall[2 COMall[3
421.3 943.441 922.667 -6.79493 331.245 -10.9582 8.33489 -19.8531 -219.666 8.25446 -19.8087 -10.9023 8.38672 -9.59434 -219.66 8.25387 -9.65387 185.42 8.25442 -19.8127 -13.065 8.25579 -418.859
Loop time of 5747.35 on 512 procs for 1000000 steps with 345219 atoms
