fission-0100
fission-0100
fission-0100
fission-0100
fission-0100
fission-0100
fission-0100
fission-0100
fission-0100
fission-0100
fission-0100
fission-0100
fission-0100
fission-0100
fission-0100
fission-0100
fission-0100
fission-0100
fission-0100
fission-0100
fission-0100
fission-0100
fission-0100
fission-0100
fission-0100
fission-0100
fission-0100
fission-0100
fission-0100
fission-0100
fission-0100
fission-0100
fission-0086
fission-0086
fission-0086
fission-0086
fission-0086
fission-0086
fission-0086
fission-0086
fission-0086
fission-0086
fission-0086
fission-0086
fission-0086
fission-0086
fission-0086
fission-0086
fission-0086
fission-0086
fission-0086
fission-0086
fission-0086
fission-0086
fission-0086
fission-0086
fission-0086
fission-0086
fission-0086
fission-0086
fission-0086
fission-0086
fission-0086
fission-0086
fission-0112
fission-0112
fission-0112
fission-0112
fission-0112
fission-0112
fission-0112
fission-0112
fission-0112
fission-0112
fission-0112
fission-0112
fission-0112
fission-0112
fission-0112
fission-0112
fission-0112
fission-0112
fission-0112
fission-0112
fission-0112
fission-0112
fission-0112
fission-0112
fission-0112
fission-0112
fission-0112
fission-0112
fission-0112
fission-0112
fission-0112
fission-0112
fission-0088
fission-0088
fission-0088
fission-0088
fission-0088
fission-0088
fission-0088
fission-0088
fission-0088
fission-0088
fission-0088
fission-0088
fission-0088
fission-0088
fission-0088
fission-0088
fission-0088
fission-0088
fission-0088
fission-0088
fission-0088
fission-0088
fission-0088
fission-0088
fission-0088
fission-0088
fission-0088
fission-0088
fission-0088
fission-0088
fission-0088
fission-0088
fission-0091
fission-0091
fission-0091
fission-0091
fission-0091
fission-0091
fission-0091
fission-0091
fission-0091
fission-0091
fission-0091
fission-0091
fission-0091
fission-0091
fission-0091
fission-0091
fission-0091
fission-0091
fission-0091
fission-0091
fission-0091
fission-0091
fission-0091
fission-0091
fission-0091
fission-0091
fission-0091
fission-0091
fission-0091
fission-0091
fission-0091
fission-0091
fission-0087
fission-0087
fission-0087
fission-0087
fission-0087
fission-0087
fission-0087
fission-0087
fission-0087
fission-0087
fission-0087
fission-0087
fission-0087
fission-0087
fission-0087
fission-0087
fission-0087
fission-0087
fission-0087
fission-0087
fission-0087
fission-0087
fission-0087
fission-0087
fission-0087
fission-0087
fission-0087
fission-0087
fission-0087
fission-0087
fission-0087
fission-0087
fission-0093
fission-0093
fission-0093
fission-0093
fission-0093
fission-0093
fission-0093
fission-0093
fission-0093
fission-0093
fission-0093
fission-0093
fission-0093
fission-0093
fission-0093
fission-0093
fission-0093
fission-0093
fission-0093
fission-0093
fission-0093
fission-0093
fission-0093
fission-0093
fission-0093
fission-0093
fission-0093
fission-0093
fission-0093
fission-0093
fission-0093
fission-0093
fission-0099
fission-0099
fission-0099
fission-0099
fission-0099
fission-0099
fission-0099
fission-0099
fission-0099
fission-0099
fission-0099
fission-0099
fission-0099
fission-0099
fission-0099
fission-0099
fission-0099
fission-0099
fission-0099
fission-0099
fission-0099
fission-0099
fission-0099
fission-0099
fission-0099
fission-0099
fission-0099
fission-0099
fission-0099
fission-0099
fission-0099
fission-0099
fission-0095
fission-0095
fission-0095
fission-0095
fission-0095
fission-0095
fission-0095
fission-0095
fission-0095
fission-0095
fission-0095
fission-0095
fission-0095
fission-0095
fission-0095
fission-0095
fission-0095
fission-0095
fission-0095
fission-0095
fission-0095
fission-0095
fission-0095
fission-0095
fission-0095
fission-0095
fission-0095
fission-0095
fission-0095
fission-0095
fission-0095
fission-0095
fission-0096
fission-0096
fission-0096
fission-0096
fission-0096
fission-0096
fission-0096
fission-0096
fission-0096
fission-0096
fission-0096
fission-0096
fission-0096
fission-0096
fission-0096
fission-0096
fission-0096
fission-0096
fission-0096
fission-0096
fission-0096
fission-0096
fission-0096
fission-0096
fission-0096
fission-0096
fission-0096
fission-0096
fission-0096
fission-0096
fission-0096
fission-0096
fission-0089
fission-0089
fission-0089
fission-0089
fission-0089
fission-0089
fission-0089
fission-0089
fission-0089
fission-0089
fission-0089
fission-0089
fission-0089
fission-0089
fission-0089
fission-0089
fission-0089
fission-0089
fission-0089
fission-0089
fission-0089
fission-0089
fission-0089
fission-0089
fission-0089
fission-0089
fission-0089
fission-0089
fission-0089
fission-0089
fission-0089
fission-0089
fission-0098
fission-0098
fission-0098
fission-0098
fission-0098
fission-0098
fission-0098
fission-0098
fission-0098
fission-0098
fission-0098
fission-0098
fission-0098
fission-0098
fission-0098
fission-0098
fission-0098
fission-0098
fission-0098
fission-0098
fission-0098
fission-0098
fission-0098
fission-0098
fission-0098
fission-0098
fission-0098
fission-0098
fission-0098
fission-0098
fission-0098
fission-0098
fission-0092
fission-0092
fission-0092
fission-0092
fission-0092
fission-0092
fission-0092
fission-0092
fission-0092
fission-0092
fission-0092
fission-0092
fission-0092
fission-0092
fission-0092
fission-0092
fission-0092
fission-0092
fission-0092
fission-0092
fission-0092
fission-0092
fission-0092
fission-0092
fission-0092
fission-0092
fission-0092
fission-0092
fission-0092
fission-0092
fission-0092
fission-0092
fission-0101
fission-0101
fission-0101
fission-0101
fission-0101
fission-0101
fission-0101
fission-0101
fission-0101
fission-0101
fission-0101
fission-0101
fission-0101
fission-0101
fission-0101
fission-0101
fission-0101
fission-0101
fission-0101
fission-0101
fission-0101
fission-0101
fission-0101
fission-0101
fission-0101
fission-0101
fission-0101
fission-0101
fission-0101
fission-0101
fission-0101
fission-0101
fission-0102
fission-0102
fission-0102
fission-0102
fission-0102
fission-0102
fission-0102
fission-0102
fission-0102
fission-0102
fission-0102
fission-0102
fission-0102
fission-0102
fission-0102
fission-0102
fission-0102
fission-0102
fission-0102
fission-0102
fission-0102
fission-0102
fission-0102
fission-0102
fission-0102
fission-0102
fission-0102
fission-0102
fission-0102
fission-0102
fission-0102
fission-0102
fission-0104
fission-0104
fission-0104
fission-0104
fission-0104
fission-0104
fission-0104
fission-0104
fission-0104
fission-0104
fission-0104
fission-0104
fission-0104
fission-0104
fission-0104
fission-0104
fission-0104
fission-0104
fission-0104
fission-0104
fission-0104
fission-0104
fission-0104
fission-0104
fission-0104
fission-0104
fission-0104
fission-0104
fission-0104
fission-0104
fission-0104
fission-0104

The following PBS extra args (PBS_EXTRA_ARGS) will be used: -P ldrd
The following lammps extra args (LAMMPS_EXTRA_ARGS) will be used:
LAMMPS (16 Feb 2016)
#log		log.c
units           metal
dimension       3
boundary        p p p
atom_style      atomic
shell         mkdir  cfg
shell         mkdir  dump

# ----------------------- ATOM DEFINITION & Force Field -------------
# ----------------------- ATOM DEFINITION ----------------------------
lattice         fcc 4.024845358 #origin 0.0 0.0 0.0 orient x 1 -1 0 orient y 1 1 -2 orient z 1 1 1
Lattice spacing in x,y,z = 4.02485 4.02485 4.02485
variable        Lx equal 52
variable        Ly equal 2
variable        Lz equal 208
variable        boxLZ equal 218
region          SYSTEM block -52 52 -2 2 -208 0 units lattice
region          BOX block -52 52 -2 2 -218 5 units lattice
create_box      1 BOX
Created orthogonal box = (-209.292 -8.04969 -877.416) to (209.292 8.04969 20.1242)
create_atoms    1 region SYSTEM
Created 346944 atoms

delete_atoms     porosity BOX 0.01 24461    ##random seed 482793
Deleted 3466 atoms, new total = 343478

#---------------------------------------------------------------------------------
pair_style      eam/alloy
pair_coeff  	  * * Al_wkg_MSMSE_2009.set Al

#----------------------------------------------------------------------------------
velocity       all create 300.0 14441 mom yes rot yes dist gaussian         ##random seed 4928459

fix             1 all npt temp 300 300 0.1 iso 0.0 0.0 2
run      10000
  1 neighbor list requests
  update every 1 steps, delay 10 steps, check yes
Setting up Verlet run ...
  Unit style  : metal
  Current step: 0
  Time step   : 0.001
Step Temp E_pair E_mol TotEng Press Volume
0          300   -905356.87            0   -892037.51   -640.17219    6048473.6
Loop time of 61.0021 on 512 procs for 10000 steps with 343478 atoms

unfix 1

fix            2 all nvt temp 300.0 300.0 0.1

run      10000
Setting up Verlet run ...
  Unit style  : metal
  Current step: 10000
  Time step   : 0.001
Step Temp E_pair E_mol TotEng Press
10000    299.99458   -891807.79            0   -878488.66    31.116751
Loop time of 59.6743 on 512 procs for 10000 steps with 343478 atoms

reset_timestep 0
unfix    2
#---------------------- DEFINE Laser GERION and GROUP ----------------
region       R1  block -75  75  INF  INF  INF  5  units box
group        G1 region R1
123316 atoms in group G1
group        G2 subtract all G1
220162 atoms in group G2

#define     temperature/pressure calculation  group
variable    x1atom atom "x>=0  &&  x<4 &&  z>-40 && z<1"     ##NEW!!!!!!!!!!!!
variable    x2atom atom "x>=-209.292  &&  x<-205.292 &&  z>-40 && z<1"
variable    x3atom atom "x>=0  &&  x<4 &&  z>-20 && z<1"
variable    x4atom atom "x>=-209.292  &&  x<-205.292 &&  z>-20 && z<1"
variable    x5atom atom "x>=196  &&  x<200 &&  z>-40 && z<1"

group       x1atom variable x1atom
142 atoms in group x1atom
group       x2atom variable x2atom
165 atoms in group x2atom
group       x3atom variable x3atom
77 atoms in group x3atom
group       x4atom variable x4atom
86 atoms in group x4atom
group       x5atom variable x5atom
164 atoms in group x5atom

compute      COM1x x1atom com
compute      COM2x x2atom com
compute      COM3x x3atom com
compute      COM4x x4atom com
compute      COM5x x5atom com

compute      COMall all com

#Temperature profile
#variable      Tprofile atom 300*(1+(step/5000)*2.5*exp(z/40))
variable      Tprofile atom 300*(1+(step/5000)*2.5*exp(z/75))

# ------------------------- SETTINGS ---------------------------------
thermo          100
thermo_style    custom step lx pxx pyy pzz temp c_COM1x[1] c_COM1x[2] c_COM1x[3] c_COM2x[1] c_COM2x[2] c_COM2x[3] c_COM3x[1] c_COM3x[2] c_COM3x[3] c_COM4x[1] c_COM4x[2] c_COM4x[3]  c_COM5x[1] c_COM5x[2] c_COM5x[3] c_COMall[1] c_COMall[2] c_COMall[3]

timestep       0.002

compute dispall all displace/atom
# ---------------- Run Laser Material Interaction --------------------
#dump          1 all custom 1000 dump/z1dump.atom id type x y z c_dispall[1]  c_dispall[2]  c_dispall[3] c_dispall[4]
#dump          2 all cfg 100 cfg/*.cfg mass type xs ys zs
#dump_modify   2 element Al

#relax for 2 PS
#fix           1 all nvt temp 300.0 300.0 0.1
#run  1000
#unfix         1

fix           1  all nve
fix           3temp  G1  langevin  v_Tprofile  0  0.1  378411   #TEST ALL
run           5000
Setting up Verlet run ...
  Unit style  : metal
  Current step: 0
  Time step   : 0.002
Step Lx Pxx Pyy Pzz Temp COM1x[1] COM1x[2] COM1x[3] COM2x[1] COM2x[2] COM2x[3] COM3x[1] COM3x[2] COM3x[3] COM4x[1] COM4x[2] COM4x[3] COM5x[1] COM5x[2] COM5x[3] COMall[1 COMall[2 COMall[3
0     420.9875   -9.9846119   -46.049373   -190.43696    300.69713    1.8057038  -0.67434942   -19.047357   -207.46147   -1.0966455   -19.447699    1.7477687  -0.53453312   -9.6715219   -207.51684   -1.0867983   -9.4184282    197.32672   -1.1681866   -19.308181  -0.99692769   -1.0107517   -418.52361
Averages over the last 26 of 51 rows, steps 2500 to 5000:
Lx Pxx Pyy Pzz Temp COM1x[1] COM1x[2] COM1x[3] COM2x[1] COM2x[2] COM2x[3] COM3x[1] COM3x[2] COM3x[3] COM4x[1] COM4x[2] COM4x[3] COM5x[1] COM5x[2] COM5x[3] COMall[1 COMall[2 COMall[3
420.988 1000.52 943.525 642.286 322.115 1.80271 -0.638756 -18.6655 -207.569 -0.945463 -19.544 1.75344 -0.483668 -9.13788 -207.591 -0.930379 -9.49647 197.303 -0.961815 -19.4117 -1.00453 -0.987958 -418.569
Loop time of 31.1533 on 512 procs for 5000 steps with 343478 atoms

variable  com1_x equal "c_COM1x[1]"
variable  com1_y equal "c_COM1x[2]"
variable  com1_z equal "c_COM1x[3]"
variable  com2_x equal "c_COM2x[1]"
variable  com2_y equal "c_COM2x[2]"
variable  com2_z equal "c_COM2x[3]"
variable  com3_x equal "c_COM3x[1]"
variable  com3_y equal "c_COM3x[2]"
variable  com3_z equal "c_COM3x[3]"
variable  com4_x equal "c_COM4x[1]"
variable  com4_y equal "c_COM4x[2]"
variable  com4_z equal "c_COM4x[3]"
variable  com5_x equal "c_COM5x[1]"
variable  com5_y equal "c_COM5x[2]"
variable  com5_z equal "c_COM5x[3]"
variable  comall_x equal "c_COMall[1]"
variable  comall_y equal "c_COMall[2]"
variable  comall_z equal "c_COMall[3]"

#-------------------------- Wave Propagation -------------------------
unfix        3temp
run          1000000
Setting up Verlet run ...
  Unit style  : metal
  Current step: 5000
  Time step   : 0.002
Step Lx Pxx Pyy Pzz Temp COM1x[1] COM1x[2] COM1x[3] COM2x[1] COM2x[2] COM2x[3] COM3x[1] COM3x[2] COM3x[3] COM4x[1] COM4x[2] COM4x[3] COM5x[1] COM5x[2] COM5x[3] COMall[1 COMall[2 COMall[3
5000     420.9875    1335.4916    1264.4883    860.98258    329.60996    1.8586903  -0.52853921   -18.412193   -207.50938  -0.95583092   -19.451453    1.7814748  -0.28520163    -8.829347   -207.52529  -0.92175424   -9.4191784    197.41567  -0.99915233   -19.250361   -1.0014593      -1.0032   -418.58435
Averages over the last 5001 of 10001 rows, steps 505000 to 1005000:
Lx Pxx Pyy Pzz Temp COM1x[1] COM1x[2] COM1x[3] COM2x[1] COM2x[2] COM2x[3] COM3x[1] COM3x[2] COM3x[3] COM4x[1] COM4x[2] COM4x[3] COM5x[1] COM5x[2] COM5x[3] COMall[1 COMall[2 COMall[3
420.988 865.137 844.262 -6.46308 332.201 -9.32476 -9.72842 -30.1323 -218.793 -10.026 -30.7553 -9.44369 -9.54575 -20.815 -218.817 -10.0146 -20.7272 186.093 -10.076 -30.6697 -12.3045 -10.0216 -430.363
Loop time of 5821.75 on 512 procs for 1000000 steps with 343478 atoms
