fission-0090
fission-0090
fission-0090
fission-0090
fission-0090
fission-0090
fission-0090
fission-0090
fission-0090
fission-0090
fission-0090
fission-0090
fission-0090
fission-0090
fission-0090
fission-0090
fission-0090
fission-0090
fission-0090
fission-0090
fission-0090
fission-0090
fission-0090
fission-0090
fission-0090
fission-0090
fission-0090
fission-0090
fission-0090
fission-0090
fission-0090
fission-0090
fission-0280
fission-0280
fission-0280
fission-0280
fission-0280
fission-0280
fission-0280
fission-0280
fission-0280
fission-0280
fission-0280
fission-0280
fission-0280
fission-0280
fission-0280
fission-0280
fission-0280
fission-0280
fission-0280
fission-0280
fission-0280
fission-0280
fission-0280
fission-0280
fission-0280
fission-0280
fission-0280
fission-0280
fission-0280
fission-0280
fission-0280
fission-0280
fission-0075
fission-0075
fission-0075
fission-0075
fission-0075
fission-0075
fission-0075
fission-0075
fission-0075
fission-0075
fission-0075
fission-0075
fission-0075
fission-0075
fission-0075
fission-0075
fission-0075
fission-0075
fission-0075
fission-0075
fission-0075
fission-0075
fission-0075
fission-0075
fission-0075
fission-0075
fission-0075
fission-0075
fission-0075
fission-0075
fission-0075
fission-0075
fission-0150
fission-0150
fission-0150
fission-0150
fission-0150
fission-0150
fission-0150
fission-0150
fission-0150
fission-0150
fission-0150
fission-0150
fission-0150
fission-0150
fission-0150
fission-0150
fission-0150
fission-0150
fission-0150
fission-0150
fission-0150
fission-0150
fission-0150
fission-0150
fission-0150
fission-0150
fission-0150
fission-0150
fission-0150
fission-0150
fission-0150
fission-0150
fission-0202
fission-0202
fission-0202
fission-0202
fission-0202
fission-0202
fission-0202
fission-0202
fission-0202
fission-0202
fission-0202
fission-0202
fission-0202
fission-0202
fission-0202
fission-0202
fission-0202
fission-0202
fission-0202
fission-0202
fission-0202
fission-0202
fission-0202
fission-0202
fission-0202
fission-0202
fission-0202
fission-0202
fission-0202
fission-0202
fission-0202
fission-0202
fission-0029
fission-0029
fission-0029
fission-0029
fission-0029
fission-0029
fission-0029
fission-0029
fission-0029
fission-0029
fission-0029
fission-0029
fission-0029
fission-0029
fission-0029
fission-0029
fission-0029
fission-0029
fission-0029
fission-0029
fission-0029
fission-0029
fission-0029
fission-0029
fission-0029
fission-0029
fission-0029
fission-0029
fission-0029
fission-0029
fission-0029
fission-0029
fission-0051
fission-0051
fission-0051
fission-0051
fission-0051
fission-0051
fission-0051
fission-0051
fission-0051
fission-0051
fission-0051
fission-0051
fission-0051
fission-0051
fission-0051
fission-0051
fission-0051
fission-0051
fission-0051
fission-0051
fission-0051
fission-0051
fission-0051
fission-0051
fission-0051
fission-0051
fission-0051
fission-0051
fission-0051
fission-0051
fission-0051
fission-0051
fission-0177
fission-0177
fission-0177
fission-0177
fission-0177
fission-0177
fission-0177
fission-0177
fission-0177
fission-0177
fission-0177
fission-0177
fission-0177
fission-0177
fission-0177
fission-0177
fission-0177
fission-0177
fission-0177
fission-0177
fission-0177
fission-0177
fission-0177
fission-0177
fission-0177
fission-0177
fission-0177
fission-0177
fission-0177
fission-0177
fission-0177
fission-0177
fission-0292
fission-0292
fission-0292
fission-0292
fission-0292
fission-0292
fission-0292
fission-0292
fission-0292
fission-0292
fission-0292
fission-0292
fission-0292
fission-0292
fission-0292
fission-0292
fission-0292
fission-0292
fission-0292
fission-0292
fission-0292
fission-0292
fission-0292
fission-0292
fission-0292
fission-0292
fission-0292
fission-0292
fission-0292
fission-0292
fission-0292
fission-0292
fission-0184
fission-0184
fission-0184
fission-0184
fission-0184
fission-0184
fission-0184
fission-0184
fission-0184
fission-0184
fission-0184
fission-0184
fission-0184
fission-0184
fission-0184
fission-0184
fission-0184
fission-0184
fission-0184
fission-0184
fission-0184
fission-0184
fission-0184
fission-0184
fission-0184
fission-0184
fission-0184
fission-0184
fission-0184
fission-0184
fission-0184
fission-0184
fission-0281
fission-0281
fission-0281
fission-0281
fission-0281
fission-0281
fission-0281
fission-0281
fission-0281
fission-0281
fission-0281
fission-0281
fission-0281
fission-0281
fission-0281
fission-0281
fission-0281
fission-0281
fission-0281
fission-0281
fission-0281
fission-0281
fission-0281
fission-0281
fission-0281
fission-0281
fission-0281
fission-0281
fission-0281
fission-0281
fission-0281
fission-0281
fission-0243
fission-0243
fission-0243
fission-0243
fission-0243
fission-0243
fission-0243
fission-0243
fission-0243
fission-0243
fission-0243
fission-0243
fission-0243
fission-0243
fission-0243
fission-0243
fission-0243
fission-0243
fission-0243
fission-0243
fission-0243
fission-0243
fission-0243
fission-0243
fission-0243
fission-0243
fission-0243
fission-0243
fission-0243
fission-0243
fission-0243
fission-0243
fission-0259
fission-0259
fission-0259
fission-0259
fission-0259
fission-0259
fission-0259
fission-0259
fission-0259
fission-0259
fission-0259
fission-0259
fission-0259
fission-0259
fission-0259
fission-0259
fission-0259
fission-0259
fission-0259
fission-0259
fission-0259
fission-0259
fission-0259
fission-0259
fission-0259
fission-0259
fission-0259
fission-0259
fission-0259
fission-0259
fission-0259
fission-0259
fission-0207
fission-0207
fission-0207
fission-0207
fission-0207
fission-0207
fission-0207
fission-0207
fission-0207
fission-0207
fission-0207
fission-0207
fission-0207
fission-0207
fission-0207
fission-0207
fission-0207
fission-0207
fission-0207
fission-0207
fission-0207
fission-0207
fission-0207
fission-0207
fission-0207
fission-0207
fission-0207
fission-0207
fission-0207
fission-0207
fission-0207
fission-0207
fission-0036
fission-0036
fission-0036
fission-0036
fission-0036
fission-0036
fission-0036
fission-0036
fission-0036
fission-0036
fission-0036
fission-0036
fission-0036
fission-0036
fission-0036
fission-0036
fission-0036
fission-0036
fission-0036
fission-0036
fission-0036
fission-0036
fission-0036
fission-0036
fission-0036
fission-0036
fission-0036
fission-0036
fission-0036
fission-0036
fission-0036
fission-0036
fission-0085
fission-0085
fission-0085
fission-0085
fission-0085
fission-0085
fission-0085
fission-0085
fission-0085
fission-0085
fission-0085
fission-0085
fission-0085
fission-0085
fission-0085
fission-0085
fission-0085
fission-0085
fission-0085
fission-0085
fission-0085
fission-0085
fission-0085
fission-0085
fission-0085
fission-0085
fission-0085
fission-0085
fission-0085
fission-0085
fission-0085
fission-0085

The following PBS extra args (PBS_EXTRA_ARGS) will be used: -P ldrd
The following lammps extra args (LAMMPS_EXTRA_ARGS) will be used:
LAMMPS (16 Feb 2016)
#log		log.c
units           metal
dimension       3
boundary        p p p
atom_style      atomic
shell         mkdir  cfg
shell         mkdir  dump

# ----------------------- ATOM DEFINITION & Force Field -------------
# ----------------------- ATOM DEFINITION ----------------------------
lattice         fcc 4.024845358 #origin 0.0 0.0 0.0 orient x 1 -1 0 orient y 1 1 -2 orient z 1 1 1
Lattice spacing in x,y,z = 4.02485 4.02485 4.02485
variable        Lx equal 52
variable        Ly equal 2
variable        Lz equal 208
variable        boxLZ equal 218
region          SYSTEM block -52 52 -2 2 -208 0 units lattice
region          BOX block -52 52 -2 2 -218 5 units lattice
create_box      1 BOX
Created orthogonal box = (-209.292 -8.04969 -877.416) to (209.292 8.04969 20.1242)
create_atoms    1 region SYSTEM
Created 346944 atoms

delete_atoms     porosity BOX 0.01 8769    ##random seed 482793
Deleted 3402 atoms, new total = 343542

#---------------------------------------------------------------------------------
pair_style      eam/alloy
pair_coeff  	  * * Al_wkg_MSMSE_2009.set Al

#----------------------------------------------------------------------------------
velocity       all create 300.0 12004 mom yes rot yes dist gaussian         ##random seed 4928459

fix             1 all npt temp 300 300 0.1 iso 0.0 0.0 2
run      10000
  1 neighbor list requests
  update every 1 steps, delay 10 steps, check yes
Setting up Verlet run ...
  Unit style  : metal
  Current step: 0
  Time step   : 0.001
Step Temp E_pair E_mol TotEng Press Volume
0          300   -905575.46            0   -892253.61   -586.97974    6048473.6
Loop time of 60.5864 on 512 procs for 10000 steps with 343542 atoms

unfix 1

fix            2 all nvt temp 300.0 300.0 0.1

run      10000
Setting up Verlet run ...
  Unit style  : metal
  Current step: 10000
  Time step   : 0.001
Step Temp E_pair E_mol TotEng Press
10000    299.15985   -891969.98            0   -878685.44    5.1977041
Loop time of 59.6929 on 512 procs for 10000 steps with 343542 atoms

reset_timestep 0
unfix    2
#---------------------- DEFINE Laser GERION and GROUP ----------------
region       R1  block -75  75  INF  INF  INF  5  units box
group        G1 region R1
123284 atoms in group G1
group        G2 subtract all G1
220258 atoms in group G2

#define     temperature/pressure calculation  group
variable    x1atom atom "x>=0  &&  x<4 &&  z>-40 && z<1"     ##NEW!!!!!!!!!!!!
variable    x2atom atom "x>=-209.292  &&  x<-205.292 &&  z>-40 && z<1"
variable    x3atom atom "x>=0  &&  x<4 &&  z>-20 && z<1"
variable    x4atom atom "x>=-209.292  &&  x<-205.292 &&  z>-20 && z<1"
variable    x5atom atom "x>=196  &&  x<200 &&  z>-40 && z<1"

group       x1atom variable x1atom
151 atoms in group x1atom
group       x2atom variable x2atom
166 atoms in group x2atom
group       x3atom variable x3atom
73 atoms in group x3atom
group       x4atom variable x4atom
86 atoms in group x4atom
group       x5atom variable x5atom
163 atoms in group x5atom

compute      COM1x x1atom com
compute      COM2x x2atom com
compute      COM3x x3atom com
compute      COM4x x4atom com
compute      COM5x x5atom com

compute      COMall all com

#Temperature profile
#variable      Tprofile atom 300*(1+(step/5000)*2.5*exp(z/40))
variable      Tprofile atom 300*(1+(step/5000)*2.5*exp(z/75))

# ------------------------- SETTINGS ---------------------------------
thermo          100
thermo_style    custom step lx pxx pyy pzz temp c_COM1x[1] c_COM1x[2] c_COM1x[3] c_COM2x[1] c_COM2x[2] c_COM2x[3] c_COM3x[1] c_COM3x[2] c_COM3x[3] c_COM4x[1] c_COM4x[2] c_COM4x[3]  c_COM5x[1] c_COM5x[2] c_COM5x[3] c_COMall[1] c_COMall[2] c_COMall[3]

timestep       0.002

compute dispall all displace/atom
# ---------------- Run Laser Material Interaction --------------------
#dump          1 all custom 1000 dump/z1dump.atom id type x y z c_dispall[1]  c_dispall[2]  c_dispall[3] c_dispall[4]
#dump          2 all cfg 100 cfg/*.cfg mass type xs ys zs
#dump_modify   2 element Al

#relax for 2 PS
#fix           1 all nvt temp 300.0 300.0 0.1
#run  1000
#unfix         1

fix           1  all nve
fix           3temp  G1  langevin  v_Tprofile  0  0.1  378411   #TEST ALL
run           5000
Setting up Verlet run ...
  Unit style  : metal
  Current step: 0
  Time step   : 0.002
Step Lx Pxx Pyy Pzz Temp COM1x[1] COM1x[2] COM1x[3] COM2x[1] COM2x[2] COM2x[3] COM3x[1] COM3x[2] COM3x[3] COM4x[1] COM4x[2] COM4x[3] COM5x[1] COM5x[2] COM5x[3] COMall[1 COMall[2 COMall[3
0    421.01974   -32.600927   -85.450956   -140.68764    300.53346    1.9372195  -0.91545721   -19.928541   -207.59677   -1.1499134   -19.577618    1.8202705   -1.0013776   -8.5476008   -207.59527   -1.2325336   -9.3400805    197.26055  -0.94013886   -19.474721   -1.0636331   -1.0112713   -418.48513
Averages over the last 26 of 51 rows, steps 2500 to 5000:
Lx Pxx Pyy Pzz Temp COM1x[1] COM1x[2] COM1x[3] COM2x[1] COM2x[2] COM2x[3] COM3x[1] COM3x[2] COM3x[3] COM4x[1] COM4x[2] COM4x[3] COM5x[1] COM5x[2] COM5x[3] COMall[1 COMall[2 COMall[3
421.02 979.894 934.938 693.721 321.869 1.9201 -1.01223 -19.5043 -207.511 -1.09319 -19.4813 1.75911 -1.03229 -7.86677 -207.51 -1.14266 -9.19721 197.406 -0.921134 -19.3479 -1.0474 -1.01935 -418.459
Loop time of 30.21 on 512 procs for 5000 steps with 343542 atoms

variable  com1_x equal "c_COM1x[1]"
variable  com1_y equal "c_COM1x[2]"
variable  com1_z equal "c_COM1x[3]"
variable  com2_x equal "c_COM2x[1]"
variable  com2_y equal "c_COM2x[2]"
variable  com2_z equal "c_COM2x[3]"
variable  com3_x equal "c_COM3x[1]"
variable  com3_y equal "c_COM3x[2]"
variable  com3_z equal "c_COM3x[3]"
variable  com4_x equal "c_COM4x[1]"
variable  com4_y equal "c_COM4x[2]"
variable  com4_z equal "c_COM4x[3]"
variable  com5_x equal "c_COM5x[1]"
variable  com5_y equal "c_COM5x[2]"
variable  com5_z equal "c_COM5x[3]"
variable  comall_x equal "c_COMall[1]"
variable  comall_y equal "c_COMall[2]"
variable  comall_z equal "c_COMall[3]"

#-------------------------- Wave Propagation -------------------------
unfix        3temp
run          1000000
Setting up Verlet run ...
  Unit style  : metal
  Current step: 5000
  Time step   : 0.002
Step Lx Pxx Pyy Pzz Temp COM1x[1] COM1x[2] COM1x[3] COM2x[1] COM2x[2] COM2x[3] COM3x[1] COM3x[2] COM3x[3] COM4x[1] COM4x[2] COM4x[3] COM5x[1] COM5x[2] COM5x[3] COMall[1 COMall[2 COMall[3
5000    421.01974    1266.0605    1184.1812    864.47009    329.99182    1.9107144   -1.0073777   -19.346333    -207.4902   -1.1499559   -19.388748    1.8145409   -1.1017169   -7.6885383   -207.49745    -1.140886   -9.1247612    197.45819  -0.99146808   -19.229942    -1.060173   -1.0166411    -418.4666
Averages over the last 5001 of 10001 rows, steps 505000 to 1005000:
Lx Pxx Pyy Pzz Temp COM1x[1] COM1x[2] COM1x[3] COM2x[1] COM2x[2] COM2x[3] COM3x[1] COM3x[2] COM3x[3] COM4x[1] COM4x[2] COM4x[3] COM5x[1] COM5x[2] COM5x[3] COMall[1 COMall[2 COMall[3
421.02 809.182 791.952 -7.46729 331.64 -12.7504 -2.99566 -32.7583 -222.256 -3.23654 -32.2536 -12.9886 -3.09815 -21.3719 -222.238 -3.28276 -21.9795 182.592 -3.05994 -32.1218 -15.8201 -3.16251 -431.796
Loop time of 5727.67 on 512 procs for 1000000 steps with 343542 atoms
